MODFLOW2000 Dataset Imported into Groundwater Vistas
  
         1        57        63        20         4         0         0         0         1
 11 12 13 78 20  0 37 18  0  0  0 22 14  0  0  0  0  0  0  0  0  0  0  0  0  0  0  0  0  0  0  0  0  0  0  0  0 81  0  0  0  0  0  0  0  0
         1         1
         1         1(25I3)                      -1
  0  0  0  0  0  0  0  0  0  0  0  0  0  0  0  0  0  0  0  0  0  0  0  0  0
  0  0  0  0  0  0  0  0  0  0  0  0  0  0  0  0  0  0  0  0  0  0  0  0  0
  0  0  0  0  0  0  0  0  0  0  0  0  0
  0  0  0  0  0  0  0  0  0  0  0  0  0  0  0  0  0  0  0  0  0  0  0  0  0
  0  0  0  0  0  0  0  0  0  0  0  0  0  0  0  0  0  0  0  1  1  1  1  1  1
  1  1  1  1  1  1  1  1  1  1  0  0  0
  0  0  0  0  0  0  0  0  0  0  0  0  0  0  0  0  0  0  0  0  0  0  0  0  0
  0  0  0  0  0  0  0  0  0  0  0  0  0  0  0  0  0  0  1  1  1  1  1  1  1
  1  1  1  1  1  1  1  1  1  1  0  0  0
  0  0  0  0  0  0  0  0  0  0  0  0  0  0  0  0  0  0  0  0  0  0  0  0  0
  0  0  0  0  0  0  0  0  0  0  0  0  0  0  0  0  0  1  1  1  1  1  1  1  1
  1  1  1  1  1  1  1  1  1  1  1  0  0
  0  0  0  0  0  0  0  0  0  0  0  0  0  0  0  0  0  0  0  0  0  0  0  0  0
  0  0  0  0  0  0  0  0  0  0  0  0  0  0  0  0  1  1  1  1  1  1  1  1  1
  1  1  1  1  1  1  1  1  1  1  1  0  0
  0  0  0  0  0  0  0  0  0  0  0  0  0  0  0  0  0  0  0  0  0  0  0  0  0
  0  0  0  0  0  0  0  0  0  0  0  0  0  0  1  1  1  1  1  1  1  1  1  1  1
  1  1  1  1  1  1  1  1  1  1  1  0  0
  0  0  0  0  0  0  0  0  0  0  0  0  0  0  0  0  0  0  0  0  0  0  0  0  0
  0  0  0  0  0  0  0  0  0  0  0  0  0  1  1  1  1  1  1  1  1  1  1  1  1
  1  1  1  1  1  1  1  1  1  1  1  0  0
  0  0  0  0  0  0  0  0  0  0  0  0  0  0  0  0  0  0  0  0  0  0  0  0  0
  0  0  0  0  0  0  0  0  0  0  0  0  1  1  1  1  1  1  1  1  1  1  1  1  1
  1  1  1  1  1  1  1  1  1  1  1  0  0
  0  0  0  0  0  0  0  0  0  0  0  0  0  0  0  0  0  0  0  0  0  0  0  0  0
  0  0  0  0  0  0  0  0  0  0  1  1  1  1  1  1  1  1  1  1  1  1  1  1  1
  1  1  1  1  1  1  1  1  1  1  1  0  0
  0  0  0  0  0  0  0  0  0  0  0  0  0  0  0  0  0  0  0  0  0  0  0  0  0
  0  0  0  0  0  0  0  1  1  1  1  1  1  1  1  1  1  1  1  1  1  1  1  1  1
  1  1  1  1  1  1  1  1  1  1  1  0  0
  0  0  0  0  0  0  0  0  0  1  1  1  1  1  1  1  1  1  1  1  1  1  1  1  1
  1  1  1  1  1  1  1  1  1  1  1  1  1  1  1  1  1  1  1  1  1  1  1  1  1
  1  1  1  1  1  1  1  1  1  1  1  0  0
  0  0  0  0  0  0  0  0  0  1  1  1  1  1  1  1  1  1  1  1  1  1  1  1  1
  1  1  1  1  1  1  1  1  1  1  1  1  1  1  1  1  1  1  1  1  1  1  1  1  1
  1  1  1  1  1  1  1  1  1  1  1  0  0
  0  0  0  0  0  0  0  0  1  1  1  1  1  1  1  1  1  1  1  1  1  1  1  1  1
  1  1  1  1  1  1  1  1  1  1  1  1  1  1  1  1  1  1  1  1  1  1  1  1  1
  1  1  1  1  1  1  1  1  1  1  1  0  0
  0  0  0  0  0  0  0  1  1  1  1  1  1  1  1  1  1  1  1  1  1  1  1  1  1
  1  1  1  1  1  1  1  1  1  1  1  1  1  1  1  1  1  1  1  1  1  1  1  1  1
  1  1  1  1  1  1  1  1  1  1  1  0  0
  0  0  0  0  0  0  0  1  1  1  1  1  1  1  1  1  1  1  1  1  1  1  1  1  1
  1  1  1  1  1  1  1  1  1  1  1  1  1  1  1  1  1  1  1  1  1  1  1  1  1
  1  1  1  1  1  1  1  1  1  1  1  0  0
  0  0  0  1  1  1  1  1  1  1  1  1  1  1  1  1  1  1  1  1  1  1  1  1  1
  1  1  1  1  1  1  1  1  1  1  1  1  1  1  1  1  1  1  1  1  1  1  1  1  1
  1  1  1  1  1  1  1  1  1  1  1  0  0
  0  0  0  1  1  1  1  1  1  1  1  1  1  1  1  1  1  1  1  1  1  1  1  1  1
  1  1  1  1  1  1  1  1  1  1  1  1  1  1  1  1  1  1  1  1  1  1  1  1  1
  1  1  1  1  1  1  1  1  1  1  1  0  0
  0  0  0  1  1  1  1  1  1  1  1  1  1  1  1  1  1  1  1  1  1  1  1  1  1
  1  1  1  1  1  1  1  1  1  1  1  1  1  1  1  1  1  1  1  1  1  1  1  1  1
  1  1  1  1  1  1  1  1  1  1  1  0  0
  0  0  0  1  1  1  1  1  1  1  1  1  1  1  1  1  1  1  1  1  1  1  1  1  1
  1  1  1  1  1  1  1  1  1  1  1  1  1  1  1  1  1  1  1  1  1  1  1  1  1
  1  1  1  1  1  1  1  1  1  1  1  0  0
  1  1  1  1  1  1  1  1  1  1  1  1  1  1  1  1  1  1  1  1  1  1  1  1  1
  1  1  1  1  1  1  1  1  1  1  1  1  1  1  1  1  1  1  1  1  1  1  1  1  1
  1  1  1  1  1  1  1  1  1  1  1  0  0
  1  1  1  1  1  1  1  1  1  1  1  1  1  1  1  1  1  1  1  1  1  1  1  1  1
  1  1  1  1  1  1  1  1  1  1  1  1  1  1  1  1  1  1  1  1  1  1  1  1  1
  1  1  1  1  1  1  1  1  1  1  1  0  0
  1  1  1  1  1  1  1  1  1  1  1  1  1  1  1  1  1  1  1  1  1  1  1  1  1
  1  1  1  1  1  1  1  1  1  1  1  1  1  1  1  1  1  1  1  1  1  1  1  1  1
  1  1  1  1  1  1  1  1  1  1  1  0  0
  1  1  1  1  1  1  1  1  1  1  1  1  1  1  1  1  1  1  1  1  1  1  1  1  1
  1  1  1  1  1  1  1  1  1  1  1  1  1  1  1  1  1  1  1  1  1  1  1  1  1
  1  1  1  1  1  1  1  1  1  1  1  0  0
  1  1  1  1  1  1  1  1  1  1  1  1  1  1  1  1  1  1  1  1  1  1  1  1  1
  1  1  1  1  1  1  1  1  1  1  1  1  1  1  1  1  1  1  1  1  1  1  1  1  1
  1  1  1  1  1  1  1  1  1  1  1  0  0
  1  1  1  1  1  1  1  1  1  1  1  1  1  1  1  1  1  1  1  1  1  1  1  1  1
  1  1  1  1  1  1  1  1  1  1  1  1  1  1  1  1  1  1  1  1  1  1  1  1  1
  1  1  1  1  1  1  1  1  1  1  1  0  0
  1  1  1  1  1  1  1  1  1  1  1  1  1  1  1  1  1  1  1  1  1  1  1  1  1
  1  1  1  1  1  1  1  1  1  1  1  1  1  1  1  1  1  1  1  1  1  1  1  1  1
  1  1  1  1  1  1  1  1  1  1  1  0  0
  1  1  1  1  1  1  1  1  1  1  1  1  1  1  1  1  1  1  1  1  1  1  1  1  1
  1  1  1  1  1  1  1  1  1  1  1  1  1  1  1  1  1  1  1  1  1  1  1  1  1
  1  1  1  1  1  1  1  1  1  1  1  0  0
  1  1  1  1  1  1  1  1  1  1  1  1  1  1  1  1  1  1  1  1  1  1  1  1  1
  1  1  1  1  1  1  1  1  1  1  1  1  1  1  1  1  1  1  1  1  1  1  1  1  1
  1  1  1  1  1  1  1  1  1  1  1  0  0
  1  1  1  1  1  1  1  1  1  1  1  1  1  1  1  1  1  1  1  1  1  1  1  1  1
  1  1  1  1  1  1  1  1  1  1  1  1  1  1  1  1  1  1  1  1  1  1  1  1  1
  1  1  1  1  1  1  1  1  1  1  1  0  0
  0  1  1  1  1  1  1  1  1  1  1  1  1  1  1  1  1  1  1  1  1  1  1  1  1
  1  1  1  1  1  1  1  1  1  1  1  1  1  1  1  1  1  1  1  1  1  1  1  1  1
  1  1  1  1  1  1  1  1  1  1  1  0  0
  0  1  1  1  1  1  1  1  1  1  1  1  1  1  1  1  1  1  1  1  1  1  1  1  1
  1  1  1  1  1  1  1  1  1  1  1  1  1  1  1  1  1  1  1  1  1  1  1  1  1
  1  1  1  1  1  1  1  1  1  1  1  0  0
  0  1  1  1  1  1  1  1  1  1  1  1  1  1  1  1  1  1  1  1  1  1  1  1  1
  1  1  1  1  1  1  1  1  1  1  1  1  1  1  1  1  1  1  1  1  1  1  1  1  1
  1  1  1  1  1  1  1  1  1  1  1  0  0
  0  1  1  1  1  1  1  1  1  1  1  1  1  1  1  1  1  1  1  1  1  1  1  1  1
  1  1  1  1  1  1  1  1  1  1  1  1  1  1  1  1  1  1  1  1  1  1  1  1  1
  1  1  1  1  1  1  1  1  1  1  1  0  0
  0  1  1  1  1  1  1  1  1  1  1  1  1  1  1  1  1  1  1  1  1  1  1  1  1
  1  1  1  1  1  1  1  1  1  1  1  1  1  1  1  1  1  1  1  1  1  1  1  1  1
  1  1  1  1  1  1  1  1  1  1  1  0  0
  0  1  1  1  1  1  1  1  1  1  1  1  1  1  1  1  1  1  1  1  1  1  1  1  1
  1  1  1  1  1  1  1  1  1  1  1  1  1  1  1  1  1  1  1  1  1  1  1  1  1
  1  1  1  1  1  1  1  1  1  1  1  0  0
  0  1  1  1  1  1  1  1  1  1  1  1  1  1  1  1  1  1  1  1  1  1  1  1  1
  1  1  1  1  1  1  1  1  1  1  1  1  1  1  1  1  1  1  1  1  1  1  1  1  1
  1  1  1  1  1  1  1  1  1  1  1  0  0
  0  1  1  1  1  1  1  1  1  1  1  1  1  1  1  1  1  1  1  1  1  1  1  1  1
  1  1  1  1  1  1  1  1  1  1  1  1  1  1  1  1  1  1  1  1  1  1  1  1  1
  1  1  1  1  1  1  1  1  1  1  1  0  0
  0  1  1  1  1  1  1  1  1  1  1  1  1  1  1  1  1  1  1  1  1  1  1  1  1
  1  1  1  1  1  1  1  1  1  1  1  1  1  1  1  1  1  1  1  1  1  1  1  1  1
  1  1  1  1  1  1  1  1  1  1  1  0  0
  0  1  1  1  1  1  1  1  1  1  1  1  1  1  1  1  1  1  1  1  1  1  1  1  1
  1  1  1  1  1  1  1  1  1  1  1  1  1  1  1  1  1  1  1  1  1  1  1  1  1
  1  1  1  1  1  1  1  1  1  1  1  0  0
  0  1  1  1  1  1  1  1  1  1  1  1  1  1  1  1  1  1  1  1  1  1  1  1  1
  1  1  1  1  1  1  1  1  1  1  1  1  1  1  1  1  1  1  1  1  1  1  1  1  1
  1  1  1  1  1  1  1  1  1  1  1  0  0
  0  1  1  1  1  1  1  1  1  1  1  1  1  1  1  1  1  1  1  1  1  1  1  1  1
  1  1  1  1  1  1  1  1  1  1  1  1  1  1  1  1  1  1  1  1  1  1  1  1  1
  1  1  1  1  1  1  1  1  1  1  1  0  0
  0  1  1  1  1  1  1  1  1  1  1  1  1  1  1  1  1  1  1  1  1  1  1  1  1
  1  1  1  1  1  1  1  1  1  1  1  1  1  1  1  1  1  1  1  1  1  1  1  1  1
  1  1  1  1  1  1  1  1  1  1  1  0  0
  0  1  1  1  1  1  1  1  1  1  1  1  1  1  1  1  1  1  1  1  1  1  1  1  1
  1  1  1  1  1  1  1  1  1  1  1  1  1  1  1  1  1  1  1  1  1  1  1  1  1
  1  1  1  1  1  1  1  1  1  1  1  0  0
  0  1  1  1  1  1  1  1  1  1  1  1  1  1  1  1  1  1  1  1  1  1  1  1  1
  1  1  1  1  1  1  1  1  1  1  1  1  1  1  1  1  1  1  1  1  1  1  1  1  1
  1  1  1  1  1  1  1  1  1  1  1  0  0
  0  1  1  1  1  1  1  1  1  1  1  1  1  1  1  1  1  1  1  1  1  1  1  1  1
  1  1  1  1  1  1  1  1  1  1  1  1  1  1  1  1  1  1  1  1  1  1  1  1  1
  1  1  1  1  1  1  1  1  1  1  1  0  0
  0  0  0  0  0  0  1  1  1  1  1  1  1  1  1  1  1  1  1  1  1  1  1  1  1
  1  1  1  1  1  1  1  1  1  1  1  1  1  1  1  1  1  1  1  1  1  1  1  1  1
  1  1  1  1  1  1  1  1  1  1  1  0  0
  0  0  0  0  0  0  1  1  1  1  1  1  1  1  1  1  1  1  1  1  1  1  1  1  1
  1  1  1  1  1  1  1  1  1  1  1  1  1  1  1  1  1  1  1  1  1  1  1  1  1
  1  1  1  1  1  1  1  1  1  1  1  0  0
  0  0  0  0  0  0  1  1  1  1  1  1  1  1  1  1  1  1  1  1  1  1  1  1  1
  1  1  1  1  1  1  1  1  1  1  1  1  1  1  1  1  1  1  1  1  1  1  1  1  1
  1  1  1  1  1  1  1  1  1  1  1  0  0
  0  0  0  0  0  0  1  1  1  1  1  1  1  1  1  1  1  1  1  1  1  1  1  1  1
  1  1  1  1  1  1  1  1  1  1  1  1  1  1  1  1  1  1  1  1  1  1  1  1  1
  1  1  1  1  1  1  1  1  1  1  1  0  0
  0  0  0  0  0  0  1  1  1  1  1  1  1  1  1  1  1  1  1  1  1  1  1  1  1
  1  1  1  1  1  1  1  1  1  1  1  1  1  1  1  1  1  1  1  1  1  1  1  1  1
  1  1  1  1  1  1  1  1  1  1  1  0  0
  0  0  0  0  0  0  1  1  1  1  1  1  1  1  1  1  1  1  1  1  1  1  1  1  1
  1  1  1  1  1  1  1  1  1  1  1  1  1  1  1  1  1  1  1  1  1  1  1  1  1
  1  1  1  1  1  1  1  1  1  1  1  0  0
  0  0  0  0  0  0  1  1  1  1  1  1  1  1  1  1  1  1  1  1  1  1  1  1  1
  1  1  1  1  1  1  1  1  1  1  1  1  1  1  1  1  1  1  1  1  1  1  1  1  1
  1  1  1  1  1  1  1  1  1  1  1  0  0
  0  0  0  0  0  0  0  1  1  1  1  1  1  1  1  1  1  1  1  1  1  1  1  1  1
  1  1  1  1  1  1  1  1  1  1  1  1  1  1  1  1  1  1  1  1  1  1  1  1  1
  1  1  1  1  1  1  1  1  1  1  1  0  0
  0  0  0  0  0  0  0  1  1  1  1  1  1  1  1  1  1  1  1  1  1  1  1  1  1
  1  1  1  1  1  1  1  1  1  1  1  1  1  1  1  1  1  1  1  1  1  1  1  1  1
  1  1  1  1  1  1  1  1  1  1  1  0  0
  0  0  0  0  0  0  0  0  0  0  0  0  0  0  0  0  0  0  0  0  0  0  0  1  1
  1  1  1  1  1  1  1  1  1  1  1  1  1  1  1  1  1  1  1  1  1  1  1  1  1
  1  1  1  1  1  1  1  1  1  1  1  0  0
  0  0  0  0  0  0  0  0  0  0  0  0  0  0  0  0  0  0  0  0  0  0  0  1  1
  1  1  1  1  1  1  1  1  1  1  1  1  1  1  1  1  1  1  1  1  1  1  1  1  1
  1  1  1  1  1  1  1  1  1  1  0  0  0
  0  0  0  0  0  0  0  0  0  0  0  0  0  0  0  0  0  0  0  0  0  0  0  0  0
  0  0  0  0  0  0  0  0  0  0  0  0  0  0  0  0  0  0  0  0  0  0  0  0  0
  0  0  0  0  0  0  0  0  0  0  0  0  0
9.9900e+020.0000e+00
         1     1.000(10e12.4)                   -1
  9.9900e+02  9.9900e+02  9.9900e+02  9.9900e+02  9.9900e+02  9.9900e+02  9.9900e+02  9.9900e+02  9.9900e+02  9.9900e+02
  9.9900e+02  9.9900e+02  9.9900e+02  9.9900e+02  9.9900e+02  9.9900e+02  9.9900e+02  9.9900e+02  9.9900e+02  9.9900e+02
  9.9900e+02  9.9900e+02  9.9900e+02  9.9900e+02  9.9900e+02  9.9900e+02  9.9900e+02  9.9900e+02  9.9900e+02  9.9900e+02
  9.9900e+02  9.9900e+02  9.9900e+02  9.9900e+02  9.9900e+02  9.9900e+02  9.9900e+02  9.9900e+02  9.9900e+02  9.9900e+02
  9.9900e+02  9.9900e+02  9.9900e+02  9.9900e+02  9.9900e+02  9.9900e+02  9.9900e+02  9.9900e+02  9.9900e+02  9.9900e+02
  9.9900e+02  9.9900e+02  9.9900e+02  9.9900e+02  9.9900e+02  9.9900e+02  9.9900e+02  9.9900e+02  9.9900e+02  9.9900e+02
  9.9900e+02  9.9900e+02  9.9900e+02
  9.9900e+02  9.9900e+02  9.9900e+02  9.9900e+02  9.9900e+02  9.9900e+02  9.9900e+02  9.9900e+02  9.9900e+02  9.9900e+02
  9.9900e+02  9.9900e+02  9.9900e+02  9.9900e+02  9.9900e+02  9.9900e+02  9.9900e+02  9.9900e+02  9.9900e+02  9.9900e+02
  9.9900e+02  9.9900e+02  9.9900e+02  9.9900e+02  9.9900e+02  9.9900e+02  9.9900e+02  9.9900e+02  9.9900e+02  9.9900e+02
  9.9900e+02  9.9900e+02  9.9900e+02  9.9900e+02  9.9900e+02  9.9900e+02  9.9900e+02  9.9900e+02  9.9900e+02  9.9900e+02
  9.9900e+02  9.9900e+02  9.9900e+02  9.9900e+02  4.7572e+03  4.7457e+03  4.7255e+03  4.6983e+03  4.6631e+03  4.6179e+03
  4.5608e+03  4.4853e+03  4.4377e+03  4.4371e+03  4.4366e+03  4.4363e+03  4.4360e+03  4.4359e+03  4.4357e+03  4.4357e+03
  9.9900e+02  9.9900e+02  9.9900e+02
  9.9900e+02  9.9900e+02  9.9900e+02  9.9900e+02  9.9900e+02  9.9900e+02  9.9900e+02  9.9900e+02  9.9900e+02  9.9900e+02
  9.9900e+02  9.9900e+02  9.9900e+02  9.9900e+02  9.9900e+02  9.9900e+02  9.9900e+02  9.9900e+02  9.9900e+02  9.9900e+02
  9.9900e+02  9.9900e+02  9.9900e+02  9.9900e+02  9.9900e+02  9.9900e+02  9.9900e+02  9.9900e+02  9.9900e+02  9.9900e+02
  9.9900e+02  9.9900e+02  9.9900e+02  9.9900e+02  9.9900e+02  9.9900e+02  9.9900e+02  9.9900e+02  9.9900e+02  9.9900e+02
  9.9900e+02  9.9900e+02  9.9900e+02  4.7711e+03  4.7610e+03  4.7462e+03  4.7252e+03  4.6975e+03  4.6622e+03  4.6180e+03
  4.5615e+03  4.4862e+03  4.4391e+03  4.4384e+03  4.4379e+03  4.4375e+03  4.4372e+03  4.4370e+03  4.4369e+03  4.4369e+03
  9.9900e+02  9.9900e+02  9.9900e+02
  9.9900e+02  9.9900e+02  9.9900e+02  9.9900e+02  9.9900e+02  9.9900e+02  9.9900e+02  9.9900e+02  9.9900e+02  9.9900e+02
  9.9900e+02  9.9900e+02  9.9900e+02  9.9900e+02  9.9900e+02  9.9900e+02  9.9900e+02  9.9900e+02  9.9900e+02  9.9900e+02
  9.9900e+02  9.9900e+02  9.9900e+02  9.9900e+02  9.9900e+02  9.9900e+02  9.9900e+02  9.9900e+02  9.9900e+02  9.9900e+02
  9.9900e+02  9.9900e+02  9.9900e+02  9.9900e+02  9.9900e+02  9.9900e+02  9.9900e+02  9.9900e+02  9.9900e+02  9.9900e+02
  9.9900e+02  9.9900e+02  4.7824e+03  4.7741e+03  4.7621e+03  4.7455e+03  4.7236e+03  4.6957e+03  4.6611e+03  4.6178e+03
  4.5622e+03  4.4881e+03  4.4419e+03  4.4409e+03  4.4403e+03  4.4398e+03  4.4394e+03  4.4392e+03  4.4391e+03  4.4393e+03
  4.4402e+03  9.9900e+02  9.9900e+02
  9.9900e+02  9.9900e+02  9.9900e+02  9.9900e+02  9.9900e+02  9.9900e+02  9.9900e+02  9.9900e+02  9.9900e+02  9.9900e+02
  9.9900e+02  9.9900e+02  9.9900e+02  9.9900e+02  9.9900e+02  9.9900e+02  9.9900e+02  9.9900e+02  9.9900e+02  9.9900e+02
  9.9900e+02  9.9900e+02  9.9900e+02  9.9900e+02  9.9900e+02  9.9900e+02  9.9900e+02  9.9900e+02  9.9900e+02  9.9900e+02
  9.9900e+02  9.9900e+02  9.9900e+02  9.9900e+02  9.9900e+02  9.9900e+02  9.9900e+02  9.9900e+02  9.9900e+02  9.9900e+02
  9.9900e+02  4.7912e+03  4.7841e+03  4.7739e+03  4.7603e+03  4.7426e+03  4.7204e+03  4.6931e+03  4.6593e+03  4.6173e+03
  4.5635e+03  4.4912e+03  4.4449e+03  4.4444e+03  4.4439e+03  4.4433e+03  4.4428e+03  4.4424e+03  4.4421e+03  4.4421e+03
  4.4423e+03  9.9900e+02  9.9900e+02
  9.9900e+02  9.9900e+02  9.9900e+02  9.9900e+02  9.9900e+02  9.9900e+02  9.9900e+02  9.9900e+02  9.9900e+02  9.9900e+02
  9.9900e+02  9.9900e+02  9.9900e+02  9.9900e+02  9.9900e+02  9.9900e+02  9.9900e+02  9.9900e+02  9.9900e+02  9.9900e+02
  9.9900e+02  9.9900e+02  9.9900e+02  9.9900e+02  9.9900e+02  9.9900e+02  9.9900e+02  9.9900e+02  9.9900e+02  9.9900e+02
  9.9900e+02  9.9900e+02  9.9900e+02  9.9900e+02  9.9900e+02  9.9900e+02  9.9900e+02  9.9900e+02  9.9900e+02  4.8038e+03
  4.7994e+03  4.7918e+03  4.7825e+03  4.7706e+03  4.7557e+03  4.7373e+03  4.7150e+03  4.6883e+03  4.6561e+03  4.6165e+03
  4.5666e+03  4.4984e+03  4.4476e+03  4.4491e+03  4.4486e+03  4.4479e+03  4.4471e+03  4.4465e+03  4.4461e+03  4.4459e+03
  4.4458e+03  9.9900e+02  9.9900e+02
  9.9900e+02  9.9900e+02  9.9900e+02  9.9900e+02  9.9900e+02  9.9900e+02  9.9900e+02  9.9900e+02  9.9900e+02  9.9900e+02
  9.9900e+02  9.9900e+02  9.9900e+02  9.9900e+02  9.9900e+02  9.9900e+02  9.9900e+02  9.9900e+02  9.9900e+02  9.9900e+02
  9.9900e+02  9.9900e+02  9.9900e+02  9.9900e+02  9.9900e+02  9.9900e+02  9.9900e+02  9.9900e+02  9.9900e+02  9.9900e+02
  9.9900e+02  9.9900e+02  9.9900e+02  9.9900e+02  9.9900e+02  9.9900e+02  9.9900e+02  9.9900e+02  4.8048e+03  4.8019e+03
  4.7962e+03  4.7877e+03  4.7770e+03  4.7636e+03  4.7475e+03  4.7285e+03  4.7064e+03  4.6807e+03  4.6506e+03  4.6148e+03
  4.5723e+03  4.5227e+03  4.4719e+03  4.4557e+03  4.4549e+03  4.4535e+03  4.4524e+03  4.4516e+03  4.4510e+03  4.4506e+03
  4.4504e+03  9.9900e+02  9.9900e+02
  9.9900e+02  9.9900e+02  9.9900e+02  9.9900e+02  9.9900e+02  9.9900e+02  9.9900e+02  9.9900e+02  9.9900e+02  9.9900e+02
  9.9900e+02  9.9900e+02  9.9900e+02  9.9900e+02  9.9900e+02  9.9900e+02  9.9900e+02  9.9900e+02  9.9900e+02  9.9900e+02
  9.9900e+02  9.9900e+02  9.9900e+02  9.9900e+02  9.9900e+02  9.9900e+02  9.9900e+02  9.9900e+02  9.9900e+02  9.9900e+02
  9.9900e+02  9.9900e+02  9.9900e+02  9.9900e+02  9.9900e+02  9.9900e+02  9.9900e+02  4.8033e+03  4.8013e+03  4.7966e+03
  4.7893e+03  4.7795e+03  4.7672e+03  4.7523e+03  4.7350e+03  4.7155e+03  4.6938e+03  4.6695e+03  4.6416e+03  4.6096e+03
  4.5731e+03  4.5323e+03  4.4872e+03  4.4626e+03  4.4616e+03  4.4600e+03  4.4586e+03  4.4575e+03  4.4567e+03  4.4561e+03
  4.4559e+03  9.9900e+02  9.9900e+02
  9.9900e+02  9.9900e+02  9.9900e+02  9.9900e+02  9.9900e+02  9.9900e+02  9.9900e+02  9.9900e+02  9.9900e+02  9.9900e+02
  9.9900e+02  9.9900e+02  9.9900e+02  9.9900e+02  9.9900e+02  9.9900e+02  9.9900e+02  9.9900e+02  9.9900e+02  9.9900e+02
  9.9900e+02  9.9900e+02  9.9900e+02  9.9900e+02  9.9900e+02  9.9900e+02  9.9900e+02  9.9900e+02  9.9900e+02  9.9900e+02
  9.9900e+02  9.9900e+02  9.9900e+02  9.9900e+02  9.9900e+02  4.8044e+03  4.8018e+03  4.7988e+03  4.7942e+03  4.7874e+03
  4.7785e+03  4.7671e+03  4.7531e+03  4.7365e+03  4.7178e+03  4.6974e+03  4.6760e+03  4.6530e+03  4.6276e+03  4.5992e+03
  4.5675e+03  4.5329e+03  4.4936e+03  4.4699e+03  4.4687e+03  4.4672e+03  4.4657e+03  4.4641e+03  4.4631e+03  4.4625e+03
  4.4622e+03  9.9900e+02  9.9900e+02
  9.9900e+02  9.9900e+02  9.9900e+02  9.9900e+02  9.9900e+02  9.9900e+02  9.9900e+02  9.9900e+02  9.9900e+02  9.9900e+02
  9.9900e+02  9.9900e+02  9.9900e+02  9.9900e+02  9.9900e+02  9.9900e+02  9.9900e+02  9.9900e+02  9.9900e+02  9.9900e+02
  9.9900e+02  9.9900e+02  9.9900e+02  9.9900e+02  9.9900e+02  9.9900e+02  9.9900e+02  9.9900e+02  9.9900e+02  9.9900e+02
  9.9900e+02  9.9900e+02  4.8117e+03  4.8088e+03  4.8046e+03  4.8006e+03  4.7956e+03  4.7898e+03  4.7826e+03  4.7738e+03
  4.7631e+03  4.7501e+03  4.7342e+03  4.7155e+03  4.6943e+03  4.6721e+03  4.6509e+03  4.6298e+03  4.6074e+03  4.5823e+03
  4.5544e+03  4.5264e+03  4.4957e+03  4.4780e+03  4.4762e+03  4.4743e+03  4.4726e+03  4.4712e+03  4.4701e+03  4.4695e+03
  4.4691e+03  9.9900e+02  9.9900e+02
  9.9900e+02  9.9900e+02  9.9900e+02  9.9900e+02  9.9900e+02  9.9900e+02  9.9900e+02  9.9900e+02  9.9900e+02  4.5174e+03
  4.5178e+03  4.5716e+03  4.6486e+03  4.6999e+03  4.7347e+03  4.7595e+03  4.7768e+03  4.7899e+03  4.8010e+03  4.8101e+03
  4.8172e+03  4.8225e+03  4.8261e+03  4.8281e+03  4.8289e+03  4.8286e+03  4.8275e+03  4.8255e+03  4.8228e+03  4.8195e+03
  4.8157e+03  4.8117e+03  4.8083e+03  4.8037e+03  4.7980e+03  4.7915e+03  4.7839e+03  4.7753e+03  4.7657e+03  4.7550e+03
  4.7428e+03  4.7282e+03  4.7104e+03  4.6887e+03  4.6631e+03  4.6359e+03  4.6153e+03  4.5977e+03  4.5795e+03  4.5580e+03
  4.5308e+03  4.5111e+03  4.4935e+03  4.4874e+03  4.4837e+03  4.4811e+03  4.4792e+03  4.4777e+03  4.4766e+03  4.4759e+03
  4.4756e+03  9.9900e+02  9.9900e+02
  9.9900e+02  9.9900e+02  9.9900e+02  9.9900e+02  9.9900e+02  9.9900e+02  9.9900e+02  9.9900e+02  9.9900e+02  4.5168e+03
  4.5172e+03  4.5682e+03  4.6423e+03  4.6920e+03  4.7259e+03  4.7502e+03  4.7689e+03  4.7834e+03  4.7951e+03  4.8045e+03
  4.8117e+03  4.8170e+03  4.8206e+03  4.8226e+03  4.8234e+03  4.8231e+03  4.8219e+03  4.8199e+03  4.8171e+03  4.8136e+03
  4.8095e+03  4.8048e+03  4.7996e+03  4.7933e+03  4.7856e+03  4.7766e+03  4.7661e+03  4.7546e+03  4.7423e+03  4.7298e+03
  4.7166e+03  4.7013e+03  4.6819e+03  4.6563e+03  4.6221e+03  4.5789e+03  4.5631e+03  4.5533e+03  4.5433e+03  4.5280e+03
  4.5097e+03  4.5058e+03  4.4993e+03  4.4941e+03  4.4902e+03  4.4874e+03  4.4853e+03  4.4837e+03  4.4826e+03  4.4819e+03
  4.4816e+03  9.9900e+02  9.9900e+02
  9.9900e+02  9.9900e+02  9.9900e+02  9.9900e+02  9.9900e+02  9.9900e+02  9.9900e+02  9.9900e+02  4.5174e+03  4.5156e+03
  4.5158e+03  4.5635e+03  4.6311e+03  4.6766e+03  4.7097e+03  4.7349e+03  4.7550e+03  4.7708e+03  4.7833e+03  4.7931e+03
  4.8005e+03  4.8059e+03  4.8094e+03  4.8114e+03  4.8121e+03  4.8117e+03  4.8104e+03  4.8084e+03  4.8055e+03  4.8018e+03
  4.7972e+03  4.7918e+03  4.7852e+03  4.7773e+03  4.7675e+03  4.7557e+03  4.7418e+03  4.7263e+03  4.7104e+03  4.6964e+03
  4.6833e+03  4.6692e+03  4.6499e+03  4.6213e+03  4.5743e+03  4.5286e+03  4.5272e+03  4.5250e+03  4.5221e+03  4.5182e+03
  4.5129e+03  4.5084e+03  4.5036e+03  4.4992e+03  4.4957e+03  4.4929e+03  4.4908e+03  4.4893e+03  4.4882e+03  4.4875e+03
  4.4871e+03  9.9900e+02  9.9900e+02
  9.9900e+02  9.9900e+02  9.9900e+02  9.9900e+02  9.9900e+02  9.9900e+02  9.9900e+02  4.5163e+03  4.5157e+03  4.5138e+03
  4.5137e+03  4.5560e+03  4.6143e+03  4.6537e+03  4.6851e+03  4.7121e+03  4.7343e+03  4.7518e+03  4.7654e+03  4.7757e+03
  4.7833e+03  4.7887e+03  4.7921e+03  4.7940e+03  4.7945e+03  4.7941e+03  4.7928e+03  4.7906e+03  4.7876e+03  4.7837e+03
  4.7788e+03  4.7727e+03  4.7652e+03  4.7556e+03  4.7437e+03  4.7286e+03  4.7102e+03  4.6886e+03  4.6656e+03  4.6505e+03
  4.6401e+03  4.6316e+03  4.6163e+03  4.5911e+03  4.5552e+03  4.5285e+03  4.5273e+03  4.5254e+03  4.5227e+03  4.5194e+03
  4.5154e+03  4.5113e+03  4.5072e+03  4.5035e+03  4.5003e+03  4.4979e+03  4.4959e+03  4.4944e+03  4.4933e+03  4.4926e+03
  4.4923e+03  9.9900e+02  9.9900e+02
  9.9900e+02  9.9900e+02  9.9900e+02  9.9900e+02  9.9900e+02  9.9900e+02  9.9900e+02  4.5109e+03  4.5118e+03  4.5119e+03
  4.5103e+03  4.5425e+03  4.5860e+03  4.6172e+03  4.6460e+03  4.6786e+03  4.7056e+03  4.7260e+03  4.7410e+03  4.7518e+03
  4.7595e+03  4.7647e+03  4.7679e+03  4.7696e+03  4.7700e+03  4.7696e+03  4.7682e+03  4.7660e+03  4.7630e+03  4.7589e+03
  4.7538e+03  4.7473e+03  4.7390e+03  4.7283e+03  4.7141e+03  4.6954e+03  4.6709e+03  4.6389e+03  4.5953e+03  4.5824e+03
  4.5793e+03  4.5884e+03  4.5805e+03  4.5584e+03  4.5414e+03  4.5293e+03  4.5281e+03  4.5264e+03  4.5241e+03  4.5213e+03
  4.5179e+03  4.5140e+03  4.5104e+03  4.5070e+03  4.5042e+03  4.5022e+03  4.5005e+03  4.4991e+03  4.4980e+03  4.4973e+03
  4.4970e+03  9.9900e+02  9.9900e+02
  9.9900e+02  9.9900e+02  9.9900e+02  4.5022e+03  4.5000e+03  4.4964e+03  4.4938e+03  4.4987e+03  4.5036e+03  4.5061e+03
  4.5043e+03  4.5165e+03  4.5327e+03  4.5470e+03  4.5693e+03  4.6291e+03  4.6678e+03  4.6927e+03  4.7093e+03  4.7206e+03
  4.7281e+03  4.7328e+03  4.7356e+03  4.7370e+03  4.7373e+03  4.7368e+03  4.7355e+03  4.7333e+03  4.7303e+03  4.7264e+03
  4.7213e+03  4.7148e+03  4.7063e+03  4.6948e+03  4.6788e+03  4.6563e+03  4.6248e+03  4.5804e+03  4.5349e+03  4.5347e+03
  4.5348e+03  4.5476e+03  4.5459e+03  4.5335e+03  4.5326e+03  4.5309e+03  4.5295e+03  4.5279e+03  4.5260e+03  4.5237e+03
  4.5209e+03  4.5179e+03  4.5146e+03  4.5116e+03  4.5087e+03  4.5063e+03  4.5047e+03  4.5034e+03  4.5024e+03  4.5017e+03
  4.5014e+03  9.9900e+02  9.9900e+02
  9.9900e+02  9.9900e+02  9.9900e+02  4.4991e+03  4.4962e+03  4.4899e+03  4.4800e+03  4.4800e+03  4.4916e+03  4.4959e+03
  4.4974e+03  4.4908e+03  4.4883e+03  4.4882e+03  4.4892e+03  4.5590e+03  4.6219e+03  4.6518e+03  4.6693e+03  4.6801e+03
  4.6869e+03  4.6909e+03  4.6931e+03  4.6941e+03  4.6942e+03  4.6937e+03  4.6924e+03  4.6905e+03  4.6878e+03  4.6842e+03
  4.6796e+03  4.6737e+03  4.6657e+03  4.6545e+03  4.6378e+03  4.6117e+03  4.5719e+03  4.5485e+03  4.5333e+03  4.5337e+03
  4.5340e+03  4.5342e+03  4.5342e+03  4.5338e+03  4.5332e+03  4.5322e+03  4.5310e+03  4.5297e+03  4.5282e+03  4.5266e+03
  4.5244e+03  4.5222e+03  4.5197e+03  4.5174e+03  4.5150e+03  4.5124e+03  4.5107e+03  4.5095e+03  4.5085e+03  4.5079e+03
  4.5076e+03  9.9900e+02  9.9900e+02
  9.9900e+02  9.9900e+02  9.9900e+02  4.4936e+03  4.4900e+03  4.4800e+03  4.4800e+03  4.4800e+03  4.4800e+03  4.4800e+03
  4.4873e+03  4.4855e+03  4.4849e+03  4.4855e+03  4.4864e+03  4.5192e+03  4.5752e+03  4.6025e+03  4.6175e+03  4.6263e+03
  4.6315e+03  4.6343e+03  4.6356e+03  4.6362e+03  4.6362e+03  4.6358e+03  4.6348e+03  4.6333e+03  4.6313e+03  4.6286e+03
  4.6251e+03  4.6206e+03  4.6145e+03  4.6058e+03  4.5912e+03  4.5619e+03  4.5279e+03  4.5289e+03  4.5311e+03  4.5325e+03
  4.5334e+03  4.5340e+03  4.5343e+03  4.5343e+03  4.5340e+03  4.5335e+03  4.5327e+03  4.5317e+03  4.5306e+03  4.5293e+03
  4.5282e+03  4.5266e+03  4.5248e+03  4.5230e+03  4.5212e+03  4.5195e+03  4.5181e+03  4.5170e+03  4.5163e+03  4.5157e+03
  4.5154e+03  9.9900e+02  9.9900e+02
  9.9900e+02  9.9900e+02  9.9900e+02  4.4849e+03  4.4833e+03  4.4800e+03  4.4800e+03  4.4800e+03  4.4800e+03  4.4800e+03
  4.4800e+03  4.4800e+03  4.4798e+03  4.4820e+03  4.4837e+03  4.4844e+03  4.5144e+03  4.5337e+03  4.5417e+03  4.5460e+03
  4.5486e+03  4.5500e+03  4.5508e+03  4.5513e+03  4.5517e+03  4.5519e+03  4.5518e+03  4.5515e+03  4.5509e+03  4.5501e+03
  4.5489e+03  4.5474e+03  4.5455e+03  4.5437e+03  4.5406e+03  4.5330e+03  4.5257e+03  4.5274e+03  4.5297e+03  4.5315e+03
  4.5330e+03  4.5340e+03  4.5347e+03  4.5351e+03  4.5352e+03  4.5349e+03  4.5345e+03  4.5337e+03  4.5330e+03  4.5325e+03
  4.5320e+03  4.5310e+03  4.5298e+03  4.5285e+03  4.5272e+03  4.5260e+03  4.5250e+03  4.5241e+03  4.5235e+03  4.5231e+03
  4.5228e+03  9.9900e+02  9.9900e+02
  4.4304e+03  4.4305e+03  4.4312e+03  4.4674e+03  4.4736e+03  4.4800e+03  4.4800e+03  4.4800e+03  4.4800e+03  4.4800e+03
  4.4800e+03  4.4799e+03  4.4755e+03  4.4784e+03  4.4814e+03  4.4837e+03  4.4868e+03  4.4893e+03  4.4904e+03  4.4917e+03
  4.4929e+03  4.4940e+03  4.4949e+03  4.4958e+03  4.4966e+03  4.4973e+03  4.4980e+03  4.4986e+03  4.4992e+03  4.4997e+03
  4.5003e+03  4.5007e+03  4.5012e+03  4.5040e+03  4.5094e+03  4.5151e+03  4.5214e+03  4.5253e+03  4.5284e+03  4.5309e+03
  4.5329e+03  4.5343e+03  4.5354e+03  4.5361e+03  4.5365e+03  4.5366e+03  4.5365e+03  4.5364e+03  4.5363e+03  4.5364e+03
  4.5362e+03  4.5356e+03  4.5348e+03  4.5339e+03  4.5330e+03  4.5322e+03  4.5314e+03  4.5308e+03  4.5304e+03  4.5301e+03
  4.5299e+03  9.9900e+02  9.9900e+02
  4.4324e+03  4.4357e+03  4.4410e+03  4.4565e+03  4.4628e+03  4.4800e+03  4.4800e+03  4.4800e+03  4.4800e+03  4.4800e+03
  4.4800e+03  4.4800e+03  4.4799e+03  4.4774e+03  4.4802e+03  4.4827e+03  4.4855e+03  4.4883e+03  4.4901e+03  4.4916e+03
  4.4929e+03  4.4939e+03  4.4949e+03  4.4957e+03  4.4965e+03  4.4973e+03  4.4979e+03  4.4986e+03  4.4992e+03  4.4997e+03
  4.5002e+03  4.5007e+03  4.5012e+03  4.5033e+03  4.5083e+03  4.5139e+03  4.5193e+03  4.5239e+03  4.5277e+03  4.5307e+03
  4.5331e+03  4.5349e+03  4.5363e+03  4.5373e+03  4.5380e+03  4.5386e+03  4.5392e+03  4.5400e+03  4.5404e+03  4.5406e+03
  4.5406e+03  4.5403e+03  4.5399e+03  4.5393e+03  4.5387e+03  4.5381e+03  4.5376e+03  4.5372e+03  4.5369e+03  4.5367e+03
  4.5366e+03  9.9900e+02  9.9900e+02
  4.4355e+03  4.4472e+03  4.4537e+03  4.4601e+03  4.4644e+03  4.4800e+03  4.4800e+03  4.4800e+03  4.4800e+03  4.4800e+03
  4.4800e+03  4.4800e+03  4.4800e+03  4.4799e+03  4.4798e+03  4.4819e+03  4.4850e+03  4.4880e+03  4.4901e+03  4.4916e+03
  4.4929e+03  4.4940e+03  4.4949e+03  4.4958e+03  4.4965e+03  4.4973e+03  4.4979e+03  4.4986e+03  4.4992e+03  4.4997e+03
  4.5003e+03  4.5008e+03  4.5014e+03  4.5022e+03  4.5065e+03  4.5127e+03  4.5176e+03  4.5228e+03  4.5276e+03  4.5313e+03
  4.5341e+03  4.5364e+03  4.5381e+03  4.5395e+03  4.5406e+03  4.5416e+03  4.5428e+03  4.5437e+03  4.5444e+03  4.5448e+03
  4.5450e+03  4.5450e+03  4.5449e+03  4.5446e+03  4.5443e+03  4.5439e+03  4.5436e+03  4.5434e+03  4.5432e+03  4.5431e+03
  4.5430e+03  9.9900e+02  9.9900e+02
  4.4401e+03  4.4552e+03  4.4586e+03  4.4626e+03  4.4661e+03  4.4800e+03  4.4800e+03  4.4800e+03  4.4800e+03  4.4800e+03
  4.4800e+03  4.4800e+03  4.4800e+03  4.4800e+03  4.4800e+03  4.4811e+03  4.4850e+03  4.4883e+03  4.4903e+03  4.4918e+03
  4.4931e+03  4.4942e+03  4.4950e+03  4.4958e+03  4.4966e+03  4.4973e+03  4.4980e+03  4.4986e+03  4.4992e+03  4.4998e+03
  4.5004e+03  4.5009e+03  4.5016e+03  4.5022e+03  4.5065e+03  4.5125e+03  4.5174e+03  4.5230e+03  4.5284e+03  4.5326e+03
  4.5359e+03  4.5386e+03  4.5408e+03  4.5426e+03  4.5441e+03  4.5454e+03  4.5466e+03  4.5477e+03  4.5485e+03  4.5491e+03
  4.5495e+03  4.5498e+03  4.5498e+03  4.5498e+03  4.5497e+03  4.5496e+03  4.5495e+03  4.5493e+03  4.5493e+03  4.5492e+03
  4.5492e+03  9.9900e+02  9.9900e+02
  4.4410e+03  4.4544e+03  4.4585e+03  4.4637e+03  4.4692e+03  4.4748e+03  4.4799e+03  4.4800e+03  4.4800e+03  4.4800e+03
  4.4800e+03  4.4800e+03  4.4800e+03  4.4800e+03  4.4802e+03  4.4828e+03  4.4864e+03  4.4890e+03  4.4908e+03  4.4922e+03
  4.4933e+03  4.4943e+03  4.4951e+03  4.4960e+03  4.4967e+03  4.4974e+03  4.4981e+03  4.4986e+03  4.4992e+03  4.4998e+03
  4.5004e+03  4.5011e+03  4.5017e+03  4.5038e+03  4.5084e+03  4.5131e+03  4.5187e+03  4.5249e+03  4.5302e+03  4.5346e+03
  4.5382e+03  4.5412e+03  4.5437e+03  4.5458e+03  4.5476e+03  4.5491e+03  4.5505e+03  4.5517e+03  4.5526e+03  4.5534e+03
  4.5540e+03  4.5545e+03  4.5548e+03  4.5550e+03  4.5551e+03  4.5551e+03  4.5551e+03  4.5551e+03  4.5552e+03  4.5552e+03
  4.5552e+03  9.9900e+02  9.9900e+02
  4.4403e+03  4.4510e+03  4.4576e+03  4.4644e+03  4.4706e+03  4.4742e+03  4.4775e+03  4.4799e+03  4.4800e+03  4.4800e+03
  4.4800e+03  4.4800e+03  4.4801e+03  4.4802e+03  4.4827e+03  4.4852e+03  4.4877e+03  4.4897e+03  4.4912e+03  4.4925e+03