# MODFLOW2000 Basic Package
#MODFLOW Data Set Created by Groundwater Vistas
#   
CONVERGE
         1         1(25I3)                      -1     IBOUND Layer   1
  0  0  0  0  0  0  0  0  0  0  0  0  0  0  0  0  0  0  0  0  0  0  0  0  0
  0  0  0  0  0  0  0  0  0  0  0  0  0  0  0  0  0  0  0  0  0  0  0  0  0
  0  0  0  0  0  0  0  0  0  0  0  0  0
  0  0  0  0  0  0  0  0  0  0  0  0  0  0  0  0  0  0  0  0  0  0  0  0  0
  0  0  0  0  0  0  0  0  0  0  0  0  0  0  0  1  1  1  1  1  1  1  1  1  1
  1  1  1  1  1  1  1  1  1  1  0  0  0
  0  0  0  0  0  0  0  0  0  0  0  0  0  0  0  0  0  0  0  0  0  0  0  0  0
  0  0  0  0  0  0  0  0  0  0  0  0  0  0  1  1  1  1  1  1  1  1  1  1  1
  1  1  1  1  1  1  1  1  1  1  0  0  0
  0  0  0  0  0  0  0  0  0  0  0  0  0  0  0  0  0  0  0  0  0  0  0  0  0
  0  0  0  0  0  0  0  0  0  0  0  0  0  0  1  1  1  1  1  1  1  1  1  1  1
  1  1  1  1  1  1  1  1  1  1  1  0  0
  0  0  0  0  0  0  0  0  0  0  0  0  0  0  0  0  0  0  0  0  0  0  0  0  0
  0  0  0  0  0  0  0  0  0  0  0  0  0  1  1  1  1  1  1  1  1  1  1  1  1
  1  1  1  1  1  1  1  1  1  1  1  0  0
  0  0  0  0  0  0  0  0  0  0  0  0  0  0  0  0  0  0  0  0  0  0  0  0  0
  0  0  0  0  0  0  0  0  0  0  0  0  1  1  1  1  1  1  1  1  1  1  1  1  1
  1  1  1  1  1  1  1  1  1  1  1  0  0
  0  0  0  0  0  0  0  0  0  0  0  0  0  0  0  0  0  0  0  0  0  0  0  0  0
  0  0  0  0  0  0  0  0  0  0  0  1  1  1  1  1  1  1  1  1  1  1  1  1  1
  1  1  1  1  1  1  1  1  1  1  1  0  0
  0  0  0  0  0  0  0  0  0  0  0  0  0  0  0  0  0  0  0  0  0  0  0  0  0
  0  0  0  0  0  0  0  0  0  1  1  1  1  1  1  1  1  1  1  1  1  1  1  1  1
  1  1  1  1  1  1  1  1  1  1  1  0  0
  0  0  0  0  0  0  0  0  0  0  0  0  0  0  0  0  0  0  0  0  0  0  0  0  0
  0  0  0  0  0  1  1  1  1  1  1  1  1  1  1  1  1  1  1  1  1  1  1  1  1
  1  1  1  1  1  1  1  1  1  1  1  0  0
  0  0  0  0  0  0  0  0  0  0  0  0  0  0  0  0  0  0  0  0  0  0  0  0  0
  0  0  0  1  1  1  1  1  1  1  1  1  1  1  1  1  1  1  1  1  1  1  1  1  1
  1  1  1  1  1  1  1  1  1  1  1  0  0
  0  0  0  0  0  0  0  0  0  0  0  0  0  0  0  0  0  0  0  0  0  0  1  1  1
  1  1  1  1  1  1  1  1  1  1  1  1  1  1  1  1  1  1  1  1  1  1  1  1  1
  1  1  1  1  1  1  1  1  1  1  1  0  0
  0  0  0  0  0  0  1  1  1  1  1  1  1  1  1  1  1  1  1  1  1  1  1  1  1
  1  1  1  1  1  1  1  1  1  1  1  1  1  1  1  1  1  1  1  1  1  1  1  1  1
  1  1  1  1  1  1  1  1  1  1  1  0  0
  0  0  0  0  0  0  1  1  1  1  1  1  1  1  1  1  1  1  1  1  1  1  1  1  1
  1  1  1  1  1  1  1  1  1  1  1  1  1  1  1  1  1  1  1  1  1  1  1  1  1
  1  1  1  1  1  1  1  1  1  1  1  0  0
  0  0  0  0  0  0  1  1  1  1  1  1  1  1  1  1  1  1  1  1  1  1  1  1  1
  1  1  1  1  1  1  1  1  1  1  1  1  1  1  1  1  1  1  1  1  1  1  1  1  1
  1  1  1  1  1  1  1  1  1  1  1  0  0
  0  0  0  0  0  0  1  1  1  1  1  1  1  1  1  1  1  1  1  1  1  1  1  1  1
  1  1  1  1  1  1  1  1  1  1  1  1  1  1  1  1  1  1  1  1  1  1  1  1  1
  1  1  1  1  1  1  1  1  1  1  1  0  0
  0  0  0  0  0  0  0  0  0  1  1  1  1  1  1  1  1  1  1  1  1  1  1  1  1
  1  1  1  1  1  1  1  1  1  1  1  1  1  1  1  1  1  1  1  1  1  1  1  1  1
  1  1  1  1  1  1  1  1  1  1  1  0  0
  0  0  0  0  0  0  0  0  0  0  1  1  1  1  1  1  1  1  1  1  1  1  1  1  1
  1  1  1  1  1  1  1  1  1  1  1  1  1  1  1  1  1  1  1  1  1  1  1  1  1
  1  1  1  1  1  1  1  1  1  1  1  0  0
  0  0  0  0  0  0  0  0  0  0  0  1  1  1  1  1  1  1  1  1  1  1  1  1  1
  1  1  1  1  1  1  1  1  1  1  1  1  1  1  1  1  1  1  1  1  1  1  1  1  1
  1  1  1  1  1  1  1  1  1  1  1  0  0
  0  0  0  0  0  0  0  0  0  0  0  0  1  1  1  1  1  1  1  1  1  1  1  1  1
  1  1  1  1  1  1  1  1  1  1  1  1  1  1  1  1  1  1  1  1  1  1  1  1  1
  1  1  1  1  1  1  1  1  1  1  1  0  0
  0  0  0  0  0  0  0  0  0  0  0  0  1  1  1  1  1  1  1  1  1  1  1  1  1
  1  1  1  1  1  1  1  1  1  1  1  1  1  1  1  1  1  1  1  1  1  1  1  1  1
  1  1  1  1  1  1  1  1  1  1  1  0  0
  0  0  0  0  0  0  0  0  0  0  0  0  0  1  1  1  1  1  1  1  1  1  1  1  1
  1  1  1  1  1  1  1  1  1  1  1  1  1  1  1  1  1  1  1  1  1  1  1  1  1
  1  1  1  1  1  1  1  1  1  1  1  0  0
  0  0  0  0  0  0  0  0  0  0  0  0  0  0  1  1  1  1  1  1  1  1  1  1  1
  1  1  1  1  1  1  1  1  1  1  1  1  1  1  1  1  1  1  1  1  1  1  1  1  1
  1  1  1  1  1  1  1  1  1  1  1  0  0
  0  0  0  0  0  0  0  0  0  0  0  0  0  0  0  1  1  1  1  1  1  1  1  1  1
  1  1  1  1  1  1  1  1  1  1  1  1  1  1  1  1  1  1  1  1  1  1  1  1  1
  1  1  1  1  1  1  1  1  1  1  1  0  0
  0  1  1  1  0  0  0  0  0  0  0  0  0  0  0  1  1  1  1  1  1  1  1  1  1
  1  1  1  1  1  1  1  1  1  1  1  1  1  1  1  1  1  1  1  1  1  1  1  1  1
  1  1  1  1  1  1  1  1  1  1  1  0  0
  0  1  1  1  1  1  1  0  0  0  0  0  0  0  0  1  1  1  1  1  1  1  1  1  1
  1  1  1  1  1  1  1  1  1  1  1  1  1  1  1  1  1  1  1  1  1  1  1  1  1
  1  1  1  1  1  1  1  1  1  1  1  0  0
  0  1  1  1  1  1  1  1  0  0  0  0  0  1  1  1  1  1  1  1  1  1  1  1  1
  1  1  1  1  1  1  1  1  1  1  1  1  1  1  1  1  1  1  1  1  1  1  1  1  1
  1  1  1  1  1  1  1  1  1  1  1  0  0
  0  1  1  1  1  1  1  1  1  0  1  0  1  1  1  1  1  1  1  1  1  1  1  1  1
  1  1  1  1  1  1  1  1  1  1  1  1  1  1  1  1  1  1  1  1  1  1  1  1  1
  1  1  1  1  1  1  1  1  1  1  1  0  0
  0  1  1  1  1  1  1  1  1  1  1  1  1  1  1  1  1  1  1  1  1  1  1  1  1
  1  1  1  1  1  1  1  1  1  1  1  1  1  1  1  1  1  1  1  1  1  1  1  1  1
  1  1  1  1  1  1  1  1  1  1  1  0  0
  0  1  1  1  1  1  1  1  1  1  1  1  1  1  1  1  1  1  1  1  1  1  1  1  1
  1  1  1  1  1  1  1  1  1  1  1  1  1  1  1  1  1  1  1  1  1  1  1  1  1
  1  1  1  1  1  1  1  1  1  1  1  0  0
  0  1  1  1  1  1  1  1  1  1  1  1  1  1  1  1  1  1  1  1  1  1  1  1  1
  1  1  1  1  1  1  1  1  1  1  1  1  1  1  1  1  1  1  1  1  1  1  1  1  1
  1  1  1  1  1  1  1  1  1  1  1  0  0
  0  1  1  1  1  1  1  1  1  1  1  1  1  1  1  1  1  1  1  1  1  1  1  1  1
  1  1  1  1  1  1  1  1  1  1  1  1  1  1  1  1  1  1  1  1  1  1  1  1  1
  1  1  1  1  1  1  1  1  1  1  1  0  0
  0  1  1  1  1  1  1  1  1  1  1  1  1  1  1  1  1  1  1  1  1  1  1  1  1
  1  1  1  1  1  1  1  1  1  1  1  1  1  1  1  1  1  1  1  1  1  1  1  1  1
  1  1  1  1  1  1  1  1  1  1  1  0  0
  0  1  1  1  1  1  1  1  1  1  1  1  1  1  1  1  1  1  1  1  1  1  1  1  1
  1  1  1  1  1  1  1  1  1  1  1  1  1  1  1  1  1  1  1  1  1  1  1  1  1
  1  1  1  1  1  1  1  1  1  1  1  0  0
  0  1  1  1  1  1  1  1  1  1  1  1  1  1  1  1  1  1  1  1  1  1  1  1  1
  1  1  1  1  1  1  1  1  1  1  1  1  1  1  1  1  1  1  1  1  1  1  1  1  1
  1  1  1  1  1  1  1  1  1  1  1  0  0
  0  1  1  1  1  1  1  1  1  1  1  1  1  1  1  1  1  1  1  1  1  1  1  1  1
  1  1  1  1  1  1  1  1  1  1  1  1  1  1  1  1  1  1  1  1  1  1  1  1  1
  1  1  1  1  1  1  1  1  1  1  1  0  0
  0  1  1  1  1  1  1  1  1  1  1  1  1  1  1  1  1  1  1  1  1  1  1  1  1
  1  1  1  1  1  1  1  1  1  1  1  1  1  1  1  1  1  1  1  1  1  1  1  1  1
  1  1  1  1  1  1  1  1  1  1  1  0  0
  0  1  1  1  1  1  1  1  1  1  1  1  1  1  1  1  1  1  1  1  1  1  1  1  1
  1  1  1  1  1  1  1  1  1  1  1  1  1  1  1  1  1  1  1  1  1  1  1  1  1
  1  1  1  1  1  1  1  1  1  1  1  0  0
  0  1  1  1  1  1  1  1  1  1  1  1  1  1  1  1  1  1  1  1  1  1  1  1  1
  1  1  1  1  1  1  1  1  1  1  1  1  1  1  1  1  1  1  1  1  1  1  1  1  1
  1  1  1  1  1  1  1  1  1  1  1  0  0
  0  1  1  1  1  1  1  1  1  1  1  1  1  1  1  1  1  1  1  1  1  1  1  1  1
  1  1  1  1  1  1  1  1  1  1  1  1  1  1  1  1  1  1  1  1  1  1  1  1  1
  1  1  1  1  1  1  1  1  1  1  1  0  0
  0  1  1  1  1  1  1  1  1  1  1  1  1  1  1  1  1  1  1  1  1  1  1  1  1
  1  1  1  1  1  1  1  1  1  1  1  1  1  1  1  1  1  1  1  1  1  1  1  1  1
  1  1  1  1  1  1  1  1  1  1  1  0  0
  0  1  1  1  1  1  1  1  1  1  1  1  1  1  1  1  1  1  1  1  1  1  1  1  1
  1  1  1  1  1  1  1  1  1  1  1  1  1  1  1  1  1  1  1  1  1  1  1  1  1
  1  1  1  1  1  1  1  1  1  1  1  0  0
  0  1  1  1  1  1  1  1  1  1  1  1  1  1  1  1  1  1  1  1  1  1  1  1  1
  1  1  1  1  1  1  1  1  1  1  1  1  1  1  1  1  1  1  1  1  1  1  1  1  1
  1  1  1  1  1  1  1  1  1  1  1  0  0
  0  1  1  1  1  1  1  1  1  1  1  1  1  1  1  1  1  1  1  1  1  1  1  1  1
  1  1  1  1  1  1  1  1  1  1  1  1  1  1  1  1  1  1  1  1  1  1  1  1  1
  1  1  1  1  1  1  1  1  1  1  1  0  0
  0  1  1  1  1  1  1  1  1  1  1  1  1  1  1  1  1  1  1  1  1  1  1  1  1
  1  1  1  1  1  1  1  1  1  1  1  1  1  1  1  1  1  1  1  1  1  1  1  1  1
  1  1  1  1  1  1  1  1  1  1  1  0  0
  0  1  1  1  1  1  1  1  1  1  1  1  1  1  1  1  1  1  1  1  1  1  1  1  1
  1  1  1  1  1  1  1  1  1  1  1  1  1  1  1  1  1  1  1  1  1  1  1  1  1
  1  1  1  1  1  1  1  1  1  1  1  0  0
  0  0  0  0  0  0  1  1  1  1  1  1  1  1  1  1  1  1  1  1  1  1  1  1  1
  1  1  1  1  1  1  1  1  1  1  1  1  1  1  1  1  1  1  1  1  1  1  1  1  1
  1  1  1  1  1  1  1  1  1  1  1  0  0
  0  0  0  0  0  0  1  1  1  1  1  1  1  1  1  1  1  1  1  1  1  1  1  1  1
  1  1  1  1  1  1  1  1  1  1  1  1  1  1  1  1  1  1  1  1  1  1  1  1  1
  1  1  1  1  1  1  1  1  1  1  1  0  0
  0  0  0  0  0  0  1  1  1  1  1  1  1  1  1  1  1  1  1  1  1  1  1  1  1
  1  1  1  1  1  1  1  1  1  1  1  1  1  1  1  1  1  1  1  1  1  1  1  1  1
  1  1  1  1  1  1  1  1  1  1  1  0  0
  0  0  0  0  0  0  1  1  1  1  1  1  1  1  1  1  1  1  1  1  1  1  1  1  1
  1  1  1  1  1  1  1  1  1  1  1  1  1  1  1  1  1  1  1  1  1  1  1  1  1
  1  1  1  1  1  1  1  1  1  1  1  0  0
  0  0  0  0  0  0  1  1  1  1  1  1  1  1  1  1  1  1  1  1  1  1  1  1  1
  1  1  1  1  1  1  1  1  1  1  1  1  1  1  1  1  1  1  1  1  1  1  1  1  1
  1  1  1  1  1  1  1  1  1  1  1  0  0
  0  0  0  0  0  0  1  1  1  1  1  1  1  1  1  1  1  1  1  1  1  1  1  1  1
  1  1  1  1  1  1  1  1  1  1  1  1  1  1  1  1  1  1  1  1  1  1  1  1  1
  1  1  1  1  1  1  1  1  1  1  1  0  0
  0  0  0  0  0  0  1  1  1  1  1  1  1  1  1  1  1  1  1  1  1  1  1  1  1
  1  1  1  1  1  1  1  1  1  1  1  1  1  1  1  1  1  1  1  1  1  1  1  1  1
  1  1  1  1  1  1  1  1  1  1  1  0  0
  0  0  0  0  0  0  0  1  1  1  1  1  1  1  1  1  1  1  1  1  1  1  1  1  1
  1  1  1  1  1  1  1  1  1  1  1  1  1  1  1  1  1  1  1  1  1  1  1  1  1
  1  1  1  1  1  1  1  1  1  1  1  0  0
  0  0  0  0  0  0  0  1  1  1  1  1  1  1  1  1  1  1  1  1  1  1  1  1  1
  1  1  1  1  1  1  1  1  1  1  1  1  1  1  1  1  1  1  1  1  1  1  1  1  1
  1  1  1  1  1  1  1  1  1  1  1  0  0
  0  0  0  0  0  0  0  0  0  0  0  0  0  0  0  0  0  0  0  0  0  0  0  1  1
  1  1  1  1  1  1  1  1  1  1  1  1  1  1  1  1  1  1  1  1  1  1  1  1  1
  1  1  1  1  1  1  1  1  1  1  1  0  0
  0  0  0  0  0  0  0  0  0  0  0  0  0  0  0  0  0  0  0  0  0  0  0  1  1
  1  1  1  1  1  1  1  1  1  1  1  1  1  1  1  1  1  1  1  1  1  1  1  1  1
  1  1  1  1  1  1  1  1  1  1  0  0  0
  0  0  0  0  0  0  0  0  0  0  0  0  0  0  0  0  0  0  0  0  0  0  0  0  0
  0  0  0  0  0  0  0  0  0  0  0  0  0  0  0  0  0  0  0  0  0  0  0  0  0
  0  0  0  0  0  0  0  0  0  0  0  0  0
9.9900e+02
         1     1.000(10e12.4)                   -1     STARTING HEADS Layer   1
  4.3904e+03  4.3804e+03  4.3710e+03  4.3643e+03  4.3698e+03  4.3697e+03  4.3895e+03  4.4023e+03  4.4008e+03  4.3798e+03
  4.3731e+03  4.3812e+03  4.3881e+03  4.3962e+03  4.4139e+03  4.4351e+03  4.4527e+03  4.4670e+03  4.4621e+03  4.4696e+03
  4.4793e+03  4.4952e+03  4.5206e+03  4.5358e+03  4.5413e+03  4.5405e+03  4.5334e+03  4.5311e+03  4.5232e+03  4.5560e+03
  4.5681e+03  4.5969e+03  4.6680e+03  4.8172e+03  4.8416e+03  4.8143e+03  4.8705e+03  4.8957e+03  4.8527e+03  4.7978e+03
  4.8401e+03  4.8057e+03  4.7604e+03  4.7533e+03  4.7140e+03  4.6611e+03  4.6453e+03  4.6237e+03  4.5938e+03  4.5914e+03
  4.5679e+03  4.5534e+03  4.5367e+03  4.5212e+03  4.5117e+03  4.5042e+03  4.5015e+03  4.4971e+03  4.4976e+03  4.5012e+03
  4.5074e+03  4.5143e+03  4.5213e+03
  4.4125e+03  4.4136e+03  4.4060e+03  4.3863e+03  4.3702e+03  4.3722e+03  4.3796e+03  4.3897e+03  4.4105e+03  4.3979e+03
  4.3842e+03  4.3888e+03  4.3968e+03  4.4176e+03  4.4288e+03  4.4382e+03  4.4647e+03  4.4763e+03  4.4788e+03  4.4855e+03
  4.5033e+03  4.5316e+03  4.5731e+03  4.6743e+03  4.6180e+03  4.5753e+03  4.5627e+03  4.5604e+03  4.5386e+03  4.5629e+03
  4.5907e+03  4.6103e+03  4.6467e+03  4.7520e+03  4.8455e+03  4.8664e+03  4.8775e+03  4.8751e+03  4.8444e+03  4.8303e+03
  4.8407e+03  4.7911e+03  4.7459e+03  4.7205e+03  4.7031e+03  4.6750e+03  4.6767e+03  4.6687e+03  4.6196e+03  4.5854e+03
  4.5750e+03  4.5527e+03  4.5358e+03  4.5215e+03  4.5157e+03  4.5134e+03  4.5064e+03  4.5011e+03  4.5000e+03  4.5035e+03
  4.5092e+03  4.5161e+03  4.5252e+03
  4.3989e+03  4.4126e+03  4.4195e+03  4.4080e+03  4.3981e+03  4.3840e+03  4.3822e+03  4.3898e+03  4.4080e+03  4.4173e+03
  4.4146e+03  4.4153e+03  4.4130e+03  4.4252e+03  4.4388e+03  4.4491e+03  4.4571e+03  4.4752e+03  4.4901e+03  4.5050e+03
  4.5302e+03  4.5596e+03  4.6243e+03  4.7163e+03  4.6394e+03  4.6091e+03  4.5828e+03  4.5704e+03  4.5689e+03  4.5771e+03
  4.6126e+03  4.6411e+03  4.6923e+03  4.8011e+03  4.8363e+03  4.8937e+03  4.8907e+03  4.8692e+03  4.8593e+03  4.8477e+03
  4.8158e+03  4.7807e+03  4.7620e+03  4.7381e+03  4.7310e+03  4.7161e+03  4.6967e+03  4.6639e+03  4.6383e+03  4.6237e+03
  4.6037e+03  4.5629e+03  4.5419e+03  4.5283e+03  4.5199e+03  4.5169e+03  4.5144e+03  4.5052e+03  4.5019e+03  4.5039e+03
  4.5100e+03  4.5171e+03  4.5300e+03
  4.3768e+03  4.3937e+03  4.3993e+03  4.4029e+03  4.4010e+03  4.4010e+03  4.3918e+03  4.3967e+03  4.4150e+03  4.4387e+03
  4.4574e+03  4.4562e+03  4.4410e+03  4.4334e+03  4.4467e+03  4.4599e+03  4.4730e+03  4.4734e+03  4.4972e+03  4.5185e+03
  4.5431e+03  4.5787e+03  4.6373e+03  4.7441e+03  4.7081e+03  4.6427e+03  4.6070e+03  4.5916e+03  4.6002e+03  4.6203e+03
  4.6302e+03  4.7315e+03  4.7965e+03  4.8905e+03  4.9422e+03  4.9315e+03  4.9003e+03  4.8835e+03  4.8728e+03  4.8326e+03
  4.8344e+03  4.8376e+03  4.8022e+03  4.7645e+03  4.7308e+03  4.7117e+03  4.6895e+03  4.6703e+03  4.6581e+03  4.6362e+03
  4.5943e+03  4.5570e+03  4.5425e+03  4.5347e+03  4.5271e+03  4.5204e+03  4.5195e+03  4.5148e+03  4.5070e+03  4.5052e+03
  4.5112e+03  4.5169e+03  4.5227e+03
  4.3944e+03  4.4020e+03  4.4095e+03  4.4082e+03  4.4148e+03  4.4076e+03  4.3967e+03  4.4010e+03  4.4182e+03  4.4382e+03
  4.4529e+03  4.4626e+03  4.4605e+03  4.4523e+03  4.4647e+03  4.4774e+03  4.4942e+03  4.5005e+03  4.5134e+03  4.5178e+03
  4.5310e+03  4.5757e+03  4.6287e+03  4.7180e+03  4.7067e+03  4.6573e+03  4.6230e+03  4.6295e+03  4.6539e+03  4.7065e+03
  4.6510e+03  4.7018e+03  4.8289e+03  4.9639e+03  4.9789e+03  4.9477e+03  4.9403e+03  4.9247e+03  4.8767e+03  4.8872e+03
  4.8998e+03  4.8919e+03  4.8506e+03  4.8011e+03  4.7713e+03  4.7496e+03  4.7251e+03  4.6835e+03  4.6486e+03  4.6131e+03
  4.5819e+03  4.5619e+03  4.5522e+03  4.5442e+03  4.5350e+03  4.5294e+03  4.5260e+03  4.5219e+03  4.5152e+03  4.5144e+03
  4.5172e+03  4.5189e+03  4.5229e+03
  4.3957e+03  4.4095e+03  4.4201e+03  4.4234e+03  4.4412e+03  4.4249e+03  4.4074e+03  4.4126e+03  4.4204e+03  4.4298e+03
  4.4410e+03  4.4556e+03  4.4688e+03  4.4725e+03  4.4875e+03  4.5011e+03  4.5208e+03  4.5395e+03  4.5762e+03  4.5634e+03
  4.5369e+03  4.5787e+03  4.6348e+03  4.6818e+03  4.7390e+03  4.7017e+03  4.6615e+03  4.6818e+03  4.7185e+03  4.8558e+03
  4.7183e+03  4.7359e+03  4.9253e+03  5.0299e+03  5.0180e+03  4.9795e+03  4.9464e+03  4.9241e+03  4.8957e+03  4.8973e+03
  4.8894e+03  4.8545e+03  4.8069e+03  4.7788e+03  4.7465e+03  4.7219e+03  4.6989e+03  4.6959e+03  4.6752e+03  4.6483e+03
  4.6017e+03  4.5748e+03  4.5659e+03  4.5595e+03  4.5430e+03  4.5371e+03  4.5305e+03  4.5244e+03  4.5212e+03  4.5198e+03
  4.5229e+03  4.5220e+03  4.5294e+03
  4.3965e+03  4.4114e+03  4.4194e+03  4.4376e+03  4.4662e+03  4.4578e+03  4.4336e+03  4.4394e+03  4.4370e+03  4.4433e+03
  4.4526e+03  4.4660e+03  4.4830e+03  4.4927e+03  4.5086e+03  4.5312e+03  4.5595e+03  4.5821e+03  4.6154e+03  4.6188e+03
  4.5631e+03  4.5642e+03  4.6050e+03  4.6465e+03  4.7195e+03  4.7311e+03  4.7139e+03  4.7281e+03  4.8143e+03  4.9435e+03
  4.7858e+03  4.8752e+03  4.8493e+03  5.0106e+03  5.0192e+03  4.9718e+03  4.9604e+03  4.9419e+03  4.9038e+03  4.8726e+03
  4.8254e+03  4.7999e+03  4.7775e+03  4.7510e+03  4.7333e+03  4.7045e+03  4.6853e+03  4.6654e+03  4.6486e+03  4.6329e+03
  4.6141e+03  4.6048e+03  4.5890e+03  4.5770e+03  4.5556e+03  4.5420e+03  4.5312e+03  4.5231e+03  4.5219e+03  4.5225e+03
  4.5289e+03  4.5298e+03  4.5367e+03
  4.4095e+03  4.4304e+03  4.4395e+03  4.4496e+03  4.4623e+03  4.4647e+03  4.4593e+03  4.4625e+03  4.4515e+03  4.4588e+03
  4.4708e+03  4.4856e+03  4.5003e+03  4.5207e+03  4.5356e+03  4.5672e+03  4.6084e+03  4.7078e+03  4.7227e+03  4.6331e+03
  4.5957e+03  4.6005e+03  4.6147e+03  4.6447e+03  4.7200e+03  4.7853e+03  4.8435e+03  4.8002e+03  4.8616e+03  5.0178e+03
  4.9621e+03  5.0270e+03  5.0239e+03  5.0812e+03  5.0460e+03  4.9878e+03  4.9811e+03  4.9686e+03  4.9467e+03  4.9197e+03
  4.8693e+03  4.8227e+03  4.8010e+03  4.8066e+03  4.7658e+03  4.7319e+03  4.7117e+03  4.6947e+03  4.6803e+03  4.6560e+03
  4.6929e+03  4.6619e+03  4.6304e+03  4.5947e+03  4.5640e+03  4.5466e+03  4.5327e+03  4.5196e+03  4.5179e+03  4.5291e+03
  4.5420e+03  4.5392e+03  4.5409e+03
  4.4255e+03  4.4374e+03  4.4442e+03  4.4467e+03  4.4589e+03  4.4732e+03  4.4825e+03  4.4736e+03  4.4625e+03  4.4685e+03
  4.4824e+03  4.4980e+03  4.5204e+03  4.5450e+03  4.5653e+03  4.5993e+03  4.6711e+03  4.7286e+03  4.6791e+03  4.6851e+03
  4.6687e+03  4.6890e+03  4.6842e+03  4.7399e+03  4.7385e+03  4.8605e+03  4.8875e+03  4.9754e+03  4.9980e+03  5.0497e+03
  5.1454e+03  5.1213e+03  5.1311e+03  5.1126e+03  5.0521e+03  5.0262e+03  5.0366e+03  5.0059e+03  4.9432e+03  4.8990e+03
  4.8946e+03  4.8612e+03  4.8303e+03  4.8301e+03  4.8260e+03  4.7949e+03  4.7674e+03  4.7500e+03  4.7252e+03  4.7221e+03
  4.7028e+03  4.6735e+03  4.6318e+03  4.5958e+03  4.5916e+03  4.5648e+03  4.5382e+03  4.5333e+03  4.5313e+03  4.5465e+03
  4.5692e+03  4.5476e+03  4.5421e+03
  4.4261e+03  4.4279e+03  4.4357e+03  4.4422e+03  4.4611e+03  4.4759e+03  4.4773e+03  4.4686e+03  4.4666e+03  4.4776e+03
  4.4931e+03  4.5102e+03  4.5340e+03  4.5610e+03  4.6046e+03  4.6264e+03  4.6592e+03  4.7552e+03  4.8455e+03  4.9209e+03
  4.8907e+03  4.9212e+03  4.7852e+03  4.9567e+03  4.9690e+03  5.0026e+03  5.0440e+03  5.0770e+03  5.0969e+03  5.1443e+03
  5.1473e+03  5.1540e+03  5.1417e+03  5.0954e+03  5.0322e+03  5.0613e+03  5.0417e+03  4.9888e+03  4.9225e+03  4.8429e+03
  4.8087e+03  4.7813e+03  4.7596e+03  4.7431e+03  4.8148e+03  4.8723e+03  4.8755e+03  4.8398e+03  4.7865e+03  4.7739e+03
  4.7573e+03  4.6995e+03  4.6273e+03  4.5841e+03  4.5724e+03  4.5515e+03  4.5486e+03  4.5466e+03  4.5472e+03  4.5474e+03
  4.5465e+03  4.5469e+03  4.5433e+03
  4.4125e+03  4.4229e+03  4.4341e+03  4.4370e+03  4.4585e+03  4.4613e+03  4.4541e+03  4.4564e+03  4.4650e+03  4.4860e+03
  4.5044e+03  4.5288e+03  4.5585e+03  4.5854e+03  4.6178e+03  4.6526e+03  4.7759e+03  4.9412e+03  4.9664e+03  4.9774e+03
  4.9819e+03  4.9839e+03  4.9839e+03  5.0109e+03  5.0345e+03  5.0624e+03  5.0813e+03  5.0900e+03  5.1105e+03  5.0953e+03
  5.0781e+03  5.0712e+03  5.0800e+03  5.0295e+03  4.9681e+03  5.0376e+03  5.0243e+03  4.9724e+03  4.9386e+03  4.9108e+03
  4.8885e+03  4.8569e+03  4.8018e+03  4.7246e+03  4.7376e+03  4.7824e+03  4.8054e+03  4.8179e+03  4.7840e+03  4.7332e+03
  4.7243e+03  4.6659e+03  4.6099e+03  4.5705e+03  4.5455e+03  4.5446e+03  4.5528e+03  4.5558e+03  4.5619e+03  4.5625e+03
  4.5653e+03  4.5574e+03  4.5503e+03
  4.4213e+03  4.4232e+03  4.4344e+03  4.4399e+03  4.4434e+03  4.4539e+03  4.4577e+03  4.4596e+03  4.4718e+03  4.4952e+03
  4.5199e+03  4.5470e+03  4.5772e+03  4.6161e+03  4.6864e+03  4.8324e+03  4.9033e+03  4.9734e+03  4.9814e+03  4.9818e+03
  4.9811e+03  4.9874e+03  5.0027e+03  5.0152e+03  5.0253e+03  5.0636e+03  5.0560e+03  5.0442e+03  5.0678e+03  5.0213e+03
  4.9714e+03  4.9952e+03  4.9962e+03  4.9413e+03  4.9518e+03  5.0111e+03  4.9734e+03  4.9393e+03  4.8879e+03  4.8458e+03
  4.8070e+03  4.7796e+03  4.7470e+03  4.7244e+03  4.6776e+03  4.6884e+03  4.7161e+03  4.6945e+03  4.6836e+03  4.6451e+03
  4.6252e+03  4.6067e+03  4.5876e+03  4.5626e+03  4.5580e+03  4.5574e+03  4.5641e+03  4.5699e+03  4.5705e+03  4.5681e+03
  4.5648e+03  4.5603e+03  4.5581e+03
  4.4543e+03  4.4304e+03  4.4509e+03  4.4680e+03  4.4686e+03  4.4638e+03  4.4641e+03  4.4656e+03  4.4827e+03  4.5054e+03
  4.5347e+03  4.5715e+03  4.6072e+03  4.6473e+03  4.8305e+03  4.9846e+03  4.9989e+03  4.9903e+03  4.9821e+03  4.9817e+03
  4.9786e+03  4.9875e+03  5.0042e+03  5.0118e+03  5.0370e+03  5.0482e+03  5.0184e+03  4.9694e+03  5.0393e+03  5.0224e+03
  4.8799e+03  4.8523e+03  4.8619e+03  4.9032e+03  4.9876e+03  4.9674e+03  4.8626e+03  4.8433e+03  4.8904e+03  4.8828e+03
  4.8142e+03  4.7628e+03  4.7141e+03  4.6826e+03  4.6636e+03  4.6372e+03  4.6346e+03  4.6350e+03  4.6228e+03  4.5988e+03
  4.5879e+03  4.5773e+03  4.5665e+03  4.5633e+03  4.5641e+03  4.5746e+03  4.5843e+03  4.5820e+03  4.5757e+03  4.5651e+03
  4.5606e+03  4.5616e+03  4.5629e+03
  4.4718e+03  4.4498e+03  4.4406e+03  4.4580e+03  4.4641e+03  4.4629e+03  4.4634e+03  4.4710e+03  4.4846e+03  4.5111e+03
  4.5464e+03  4.5982e+03  4.6901e+03  4.8091e+03  4.9346e+03  5.0350e+03  5.0181e+03  4.9971e+03  4.9788e+03  4.9784e+03
  4.9778e+03  4.9809e+03  4.9940e+03  4.9991e+03  5.0178e+03  5.0248e+03  4.9807e+03  4.8902e+03  4.9649e+03  4.9537e+03
  4.8838e+03  4.8056e+03  4.8926e+03  4.9496e+03  4.9268e+03  4.8846e+03  4.8032e+03  4.7814e+03  4.8652e+03  4.8938e+03
  4.8429e+03  4.7768e+03  4.7457e+03  4.7142e+03  4.6540e+03  4.6256e+03  4.6113e+03  4.6011e+03  4.5895e+03  4.5815e+03
  4.5754e+03  4.5714e+03  4.5728e+03  4.5768e+03  4.5822e+03  4.5860e+03  4.5861e+03  4.5823e+03  4.5724e+03  4.5678e+03
  4.5647e+03  4.5658e+03  4.5689e+03
  4.4825e+03  4.4775e+03  4.4618e+03  4.4576e+03  4.4632e+03  4.4648e+03  4.4646e+03  4.4735e+03  4.4872e+03  4.5110e+03
  4.5499e+03  4.6081e+03  4.7061e+03  4.8837e+03  5.0112e+03  5.0311e+03  5.0092e+03  4.9905e+03  4.9761e+03  4.9689e+03
  4.9711e+03  4.9772e+03  4.9998e+03  5.0248e+03  5.0110e+03  4.9871e+03  4.9573e+03  4.8832e+03  4.8587e+03  4.8960e+03
  4.9054e+03  4.7962e+03  4.8176e+03  4.8463e+03  4.8115e+03  4.7721e+03  4.7345e+03  4.7429e+03  4.7860e+03  4.7896e+03
  4.8116e+03  4.7733e+03  4.7241e+03  4.6676e+03  4.6493e+03  4.6152e+03  4.6029e+03  4.5927e+03  4.5848e+03  4.5799e+03
  4.5772e+03  4.5808e+03  4.5850e+03  4.5870e+03  4.5872e+03  4.5894e+03  4.5837e+03  4.5776e+03  4.5768e+03  4.5767e+03
  4.5723e+03  4.5726e+03  4.5746e+03
  4.4926e+03  4.4932e+03  4.4823e+03  4.4910e+03  4.4865e+03  4.4868e+03  4.4750e+03  4.4744e+03  4.4858e+03  4.5067e+03
  4.5387e+03  4.5785e+03  4.6182e+03  4.7400e+03  4.8813e+03  4.9877e+03  4.9963e+03  4.9862e+03  4.9769e+03  4.9641e+03
  4.9637e+03  4.9568e+03  4.9831e+03  4.9959e+03  4.9661e+03  4.9314e+03  4.8178e+03  4.8269e+03  4.7959e+03  4.7915e+03
  4.8460e+03  4.7926e+03  4.7446e+03  4.7444e+03  4.7178e+03  4.6927e+03  4.6793e+03  4.6726e+03  4.6707e+03  4.6751e+03
  4.6844e+03  4.6739e+03  4.6495e+03  4.6169e+03  4.6057e+03  4.5955e+03  4.5894e+03  4.5831e+03  4.5806e+03  4.5802e+03
  4.5831e+03  4.5874e+03  4.5901e+03  4.5934e+03  4.5920e+03  4.5887e+03  4.5831e+03  4.5796e+03  4.5829e+03  4.5832e+03
  4.5785e+03  4.5797e+03  4.5814e+03
  4.4856e+03  4.4902e+03  4.4972e+03  4.5065e+03  4.5051e+03  4.4963e+03  4.4832e+03  4.4777e+03  4.4826e+03  4.4992e+03
  4.5232e+03  4.5502e+03  4.5763e+03  4.6096e+03  4.6525e+03  4.7305e+03  4.8744e+03  4.8919e+03  4.9377e+03  4.9501e+03
  4.9218e+03  4.8498e+03  4.8751e+03  4.8720e+03  4.8151e+03  4.7905e+03  4.7448e+03  4.6842e+03  4.6899e+03  4.7289e+03
  4.7275e+03  4.7399e+03  4.7121e+03  4.6857e+03  4.6757e+03  4.6635e+03  4.6515e+03  4.6438e+03  4.6324e+03  4.6289e+03
  4.6254e+03  4.6274e+03  4.6388e+03  4.6125e+03  4.5893e+03  4.5809e+03  4.5785e+03  4.5813e+03  4.5811e+03  4.5852e+03
  4.5882e+03  4.6016e+03  4.6012e+03  4.5984e+03  4.5949e+03  4.5914e+03  4.5840e+03  4.5842e+03  4.5889e+03  4.5885e+03
  4.5860e+03  4.5921e+03  4.5950e+03
  4.4954e+03  4.5188e+03  4.5228e+03  4.5191e+03  4.5064e+03  4.4936e+03  4.4814e+03  4.4776e+03  4.4780e+03  4.4853e+03
  4.5029e+03  4.5240e+03  4.5430e+03  4.5695e+03  4.5969e+03  4.6315e+03  4.6663e+03  4.7639e+03  4.7625e+03  4.7344e+03
  4.7262e+03  4.7360e+03  4.7133e+03  4.7377e+03  4.7497e+03  4.6664e+03  4.6467e+03  4.6317e+03  4.6595e+03  4.6450e+03
  4.6720e+03  4.6894e+03  4.6715e+03  4.6607e+03  4.6610e+03  4.6615e+03  4.6533e+03  4.6322e+03  4.6202e+03  4.6078e+03
  4.6053e+03  4.5995e+03  4.5970e+03  4.5905e+03  4.5850e+03  4.5806e+03  4.5806e+03  4.5856e+03  4.5918e+03  4.5962e+03
  4.5995e+03  4.6059e+03  4.6055e+03  4.6009e+03  4.5977e+03  4.5962e+03  4.5920e+03  4.5923e+03  4.5990e+03  4.6049e+03
  4.6161e+03  4.6238e+03  4.6124e+03
  4.4556e+03  4.5063e+03  4.5069e+03  4.5156e+03  4.5000e+03  4.4836e+03  4.4776e+03  4.4776e+03  4.4776e+03  4.4777e+03
  4.4821e+03  4.4992e+03  4.5200e+03  4.5422e+03  4.5612e+03  4.5907e+03  4.6461e+03  4.6721e+03  4.7265e+03  4.6846e+03
  4.6453e+03  4.6963e+03  4.6762e+03  4.6811e+03  4.6377e+03  4.6091e+03  4.5949e+03  4.5927e+03  4.6068e+03  4.6148e+03
  4.6715e+03  4.6850e+03  4.6608e+03  4.6526e+03  4.6394e+03  4.6288e+03  4.6277e+03  4.6074e+03  4.6034e+03  4.5992e+03
  4.5934e+03  4.5857e+03  4.5816e+03  4.5791e+03  4.5782e+03  4.5821e+03  4.5897e+03  4.6046e+03  4.6093e+03  4.6038e+03
  4.6044e+03  4.6079e+03  4.6083e+03  4.6048e+03  4.6026e+03  4.6038e+03  4.6058e+03  4.6049e+03  4.6132e+03  4.6366e+03
  4.6431e+03  4.6387e+03  4.6314e+03
  4.4284e+03  4.4478e+03  4.4946e+03  4.5058e+03  4.4902e+03  4.4782e+03  4.4776e+03  4.4776e+03  4.4776e+03  4.4776e+03
  4.4776e+03  4.4850e+03  4.5043e+03  4.5208e+03  4.5349e+03  4.5520e+03  4.5768e+03  4.5957e+03  4.6051e+03  4.6095e+03
  4.6002e+03  4.6359e+03  4.6576e+03  4.6373e+03  4.6007e+03  4.5799e+03  4.5671e+03  4.5645e+03  4.5723e+03  4.5932e+03
  4.6163e+03  4.6161e+03  4.6145e+03  4.6173e+03  4.6152e+03  4.6081e+03  4.5951e+03  4.5945e+03  4.5968e+03  4.5970e+03
  4.5918e+03  4.5872e+03  4.5829e+03  4.5808e+03  4.5838e+03  4.5913e+03  4.6032e+03  4.6206e+03  4.6164e+03  4.6132e+03
  4.6131e+03  4.6134e+03  4.6144e+03  4.6144e+03  4.6151e+03  4.6197e+03  4.6337e+03  4.6402e+03  4.6223e+03  4.6357e+03
  4.6429e+03  4.6409e+03  4.6406e+03
  4.4392e+03  4.4352e+03  4.4450e+03  4.4536e+03  4.4634e+03  4.4777e+03  4.4776e+03  4.4776e+03  4.4776e+03  4.4776e+03
  4.4776e+03  4.4787e+03  4.4904e+03  4.4987e+03  4.5072e+03  4.5229e+03  4.5349e+03  4.5503e+03  4.5590e+03  4.5618e+03
  4.5647e+03  4.5780e+03  4.5936e+03  4.6074e+03  4.5930e+03  4.5616e+03  4.5494e+03  4.5454e+03  4.5423e+03  4.5422e+03
  4.5522e+03  4.5605e+03  4.5618e+03  4.5635e+03  4.5673e+03  4.5762e+03  4.5928e+03  4.6040e+03  4.6025e+03  4.6012e+03
  4.5970e+03  4.5941e+03  4.5941e+03  4.5978e+03  4.6040e+03  4.6087e+03  4.6204e+03  4.6224e+03  4.6193e+03  4.6229e+03
  4.6208e+03  4.6184e+03  4.6208e+03  4.6277e+03  4.6395e+03  4.6475e+03  4.6502e+03  4.6477e+03  4.6329e+03  4.6302e+03
  4.6445e+03  4.6450e+03  4.6454e+03
  4.4380e+03  4.4490e+03  4.4527e+03  4.4548e+03  4.4626e+03  4.4800e+03  4.4782e+03  4.4776e+03  4.4776e+03  4.4776e+03
  4.4776e+03  4.4776e+03  4.4815e+03  4.4848e+03  4.4904e+03  4.4985e+03  4.5028e+03  4.5170e+03  4.5277e+03  4.5345e+03
  4.5363e+03  4.5394e+03  4.5422e+03  4.5503e+03  4.5445e+03  4.5354e+03  4.5332e+03  4.5306e+03  4.5237e+03  4.5205e+03
  4.5226e+03  4.5265e+03  4.5302e+03  4.5368e+03  4.5499e+03  4.5848e+03  4.6187e+03  4.6272e+03  4.6151e+03  4.6121e+03
  4.6032e+03  4.6058e+03  4.6128e+03  4.6151e+03  4.6173e+03  4.6226e+03  4.6290e+03  4.6228e+03  4.6271e+03  4.6315e+03
  4.6297e+03  4.6279e+03  4.6417e+03  4.6537e+03  4.6588e+03  4.6596e+03  4.6568e+03  4.6483e+03  4.6346e+03  4.6408e+03
  4.6452e+03  4.6445e+03  4.6470e+03
  4.4408e+03  4.4499e+03  4.4605e+03  4.4663e+03  4.4906e+03  4.5023e+03  4.4956e+03  4.4793e+03  4.4776e+03  4.4776e+03
  4.4776e+03  4.4786e+03  4.4802e+03  4.4816e+03  4.4833e+03  4.4866e+03  4.4896e+03  4.4943e+03  4.5023e+03  4.5132e+03
  4.5140e+03  4.5096e+03  4.5105e+03  4.5142e+03  4.5178e+03  4.5173e+03  4.5175e+03  4.5156e+03  4.5114e+03  4.5165e+03
  4.5206e+03  4.5159e+03  4.5230e+03  4.5335e+03  4.5477e+03  4.5838e+03  4.6250e+03  4.6296e+03  4.6231e+03  4.6264e+03
  4.6194e+03  4.6294e+03  4.6508e+03  4.6546e+03  4.6516e+03  4.6451e+03  4.6277e+03  4.6280e+03  4.6395e+03  4.6448e+03
  4.6518e+03  4.6484e+03  4.6614e+03  4.6664e+03  4.6672e+03  4.6659e+03  4.6622e+03  4.6510e+03  4.6414e+03  4.6443e+03
  4.6488e+03  4.6540e+03  4.6594e+03
  4.4381e+03  4.4459e+03  4.4544e+03  4.4577e+03  4.4627e+03  4.4741e+03  4.4799e+03  4.4805e+03  4.4776e+03  4.4776e+03
  4.4780e+03  4.4794e+03  4.4804e+03  4.4813e+03  4.4821e+03  4.4842e+03  4.4883e+03  4.4910e+03  4.4925e+03  4.4981e+03
  4.4987e+03  4.4982e+03  4.4992e+03  4.5012e+03  4.5049e+03  4.5084e+03  4.5092e+03  4.5078e+03  4.5044e+03  4.5056e+03
  4.5187e+03  4.5180e+03  4.5255e+03  4.5400e+03  4.5634e+03  4.6005e+03  4.6137e+03  4.6226e+03  4.6448e+03  4.6505e+03
  4.6486e+03  4.6487e+03  4.6483e+03  4.6522e+03  4.6513e+03  4.6402e+03  4.6337e+03  4.6381e+03  4.6496e+03  4.6622e+03
  4.6688e+03  4.6658e+03  4.6726e+03  4.6753e+03  4.6736e+03  4.6703e+03  4.6663e+03  4.6554e+03  4.6458e+03  4.6540e+03
  4.6604e+03  4.6631e+03  4.6616e+03
  4.4416e+03  4.4466e+03  4.4528e+03  4.4584e+03  4.4623e+03  4.4738e+03  4.4674e+03  4.4753e+03  4.4776e+03  4.4776e+03
  4.4786e+03  4.4813e+03  4.4821e+03  4.4824e+03  4.4836e+03  4.4871e+03  4.4916e+03  4.4939e+03  4.4945e+03  4.4956e+03
  4.4976e+03  4.4986e+03  4.4996e+03  4.5014e+03  4.5024e+03  4.5049e+03  4.5070e+03  4.5062e+03  4.5034e+03  4.5023e+03
  4.5128e+03  4.5183e+03  4.5309e+03  4.5473e+03  4.5599e+03  4.5885e+03  4.6167e+03  4.6514e+03  4.6797e+03  4.6858e+03