# MODFLOW2000 Drain Package
PARAMETER  0  0
         0        50
         0         0                      Stress Period 1
