# MODFLOW2000 Well Package
PARAMETER  0  0
        61        54
        61         0               Stress Period 1
         1        45        21-33211.080 Well1
         1        40        31-46206.720 Well2
         1        40        18-35617.680 Well3
         1        39        15-111184.92 Well4
         1        43        18-19252.800 Well5
         1        42        12-25413.696 Well6
         1        41        19-23103.360 Well7
         1        31         5-15402.240 Well8
         1        27        25-23103.360 Well9
         1        24        26-6738.4800 Well10
         1        41        35-13476.960 Well11
         1        41        53-21948.192 Well12
         1        41        36-22140.720 Well13
         1        29        28-20696.760 Well14
         1        27        30-20215.440 Well15
         1        42        27-22814.568 Well16
         1        48        23-8663.7600 Well17
         1        47        23-19811.131 Well18
         1        44        25-17327.520 Well19
         1        41        15-7219.8000 Well20
         1        21        30-16364.880 Well21
         1        22        32-25509.960 Well22
         1        28        14-16846.200 Well23
         1        25        19-23103.360 Well24
         1        39        13-17327.520 Well25
         1        38        14-61127.640 Well26
         1        44        54-9626.4000 Well27
         1        23        24-11551.680 Well28
         1        23        20-12514.320 Well29
         1        24        29-23103.360 Well30
         1        23        32-12129.264 Well31
         1        29        20-8663.7600 Well32
         1        28        21-9626.4000 Well33
         1        42        52-10589.040 Well34
         1        41        14-13476.960 Well35
         1        45        38-24066.000 Well36
         1        26        29-16364.880 Well37
         1        26        27-10589.040 Well38
         1        23        26-5775.8400 Well39
         1        26        28-17327.520 Well40
         1        43        53-19252.800 Well41
         1        36        47-19252.800 Well42
         1        40         6-14439.600 Well43
         1        24        21-6738.4800 Well44
         1        25        23-78936.480 Well45
         1        25        28-25028.640 Well46
         1        30        43-13476.960 Well47
         1        40        16-59683.680 Well48
         1        40        15-1443.9600 Well49
         1        27        17-10589.040 Well50
         1        44        53-19252.800 Well51
         1        27        21-38505.600 Well52
         1        52        40-32556.485 Well53
         1        42        13-8663.7600 Well54
         1        20        13-23103.360 Well55
         1        21        14-17808.840 Well56
         1        22        15-15402.240 Well57
         1        23        16-19252.800 Well58
         1        24        16-9145.0800 Well59
         1        39        19-10589.040 Well60
         1        39         5-11551.680 Well61
