# MODFLOW2000 - Link-MT3DMS Package Input File
OUTPUT_FILE_NAME HC_010511c.ftl
OUTPUT_FILE_UNIT 14
OUTPUT_FILE_HEADER Extended
OUTPUT_FILE_FORMAT Unformatted
