# MODFLOW2000 Recharge Package
PARAMETER  0
         3        51
         1         1
        18     1.000(10e12.4)                   -1     RECHARGE
  1.7670e-04  1.7670e-04  1.7670e-04  1.7670e-04  1.7670e-04  1.7670e-04  1.7670e-04  1.7670e-04  1.7670e-04  1.7670e-04
  1.7670e-04  1.7670e-04  1.7670e-04  1.7670e-04  1.7670e-04  1.7670e-04  1.7670e-04  1.7670e-04  1.7670e-04  1.7670e-04
  1.7670e-04  1.7670e-04  1.7670e-04  1.7670e-04  1.7670e-04  1.7670e-04  1.7670e-04  1.7670e-04  1.7670e-04  1.7670e-04
  1.7670e-04  1.7670e-04  1.7670e-04  1.7670e-04  1.7670e-04  1.7670e-04  1.7670e-04  1.7670e-04  1.7670e-04  1.7670e-04
  1.7670e-04  1.7670e-04  1.7670e-04  1.7670e-04  1.7670e-04  1.7670e-04  1.7670e-04  1.7670e-04  1.7670e-04  1.7670e-04
  1.7670e-04  1.7670e-04  1.7670e-04  1.7670e-04  1.7670e-04  1.7670e-04  1.7670e-04  1.7670e-04  1.7670e-04  1.7670e-04
  1.7670e-04  1.7670e-04  1.7670e-04
  1.7670e-04  1.7670e-04  1.7670e-04  1.7670e-04  1.7670e-04  1.7670e-04  1.7670e-04  1.7670e-04  1.7670e-04  1.7670e-04
  1.7670e-04  1.7670e-04  1.7670e-04  1.7670e-04  1.7670e-04  1.7670e-04  1.7670e-04  1.7670e-04  1.7670e-04  1.7670e-04
  1.7670e-04  1.7670e-04  1.7670e-04  1.7670e-04  1.7670e-04  1.7670e-04  1.7670e-04  1.7670e-04  1.7670e-04  1.7670e-04
  1.7670e-04  1.7670e-04  1.7670e-04  1.7670e-04  1.7670e-04  1.7670e-04  1.7670e-04  1.7670e-04  1.7670e-04  1.7670e-04
  1.7670e-04  1.7670e-04  1.7670e-04  1.7670e-04  1.7670e-04  1.7670e-04  1.7670e-04  1.7670e-04  1.7670e-04  1.7670e-04
  1.7670e-04  1.7670e-04  1.7670e-04  1.7670e-04  1.7670e-04  1.7670e-04 -8.9149e-02 -8.9149e-02 -8.9149e-02 -8.9149e-02
  1.7670e-04  1.7670e-04  1.7670e-04
  1.7670e-04  1.7670e-04  1.7670e-04  1.7670e-04  1.7670e-04  1.7670e-04  1.7670e-04  1.7670e-04  1.7670e-04  1.7670e-04
  1.7670e-04  1.7670e-04  1.7670e-04  1.7670e-04  1.7670e-04  1.7670e-04  1.7670e-04  1.7670e-04  1.7670e-04  1.7670e-04
  1.7670e-04  1.7670e-04  1.7670e-04  1.7670e-04  1.7670e-04  1.7670e-04  1.7670e-04  1.7670e-04  1.7670e-04  1.7670e-04
  1.7670e-04  1.7670e-04  1.7670e-04  1.7670e-04  1.7670e-04  1.7670e-04  1.7670e-04  1.7670e-04  1.7670e-04  1.7670e-04
  1.7670e-04  1.7670e-04  1.7670e-04  1.7670e-04  1.7670e-04  1.7670e-04  1.7670e-04  1.7670e-04  1.7670e-04  1.7670e-04
  1.7670e-04  1.7670e-04  1.7670e-04  1.7670e-04  1.7670e-04  1.7670e-04  1.7670e-04 -8.9149e-02 -8.9149e-02 -8.9149e-02
 -8.9149e-02  1.7670e-04  1.7670e-04
  1.7670e-04  1.7670e-04  1.7670e-04  1.7670e-04  1.7670e-04  1.7670e-04  1.7670e-04  1.7670e-04  1.7670e-04  1.7670e-04
  1.7670e-04  1.7670e-04  1.7670e-04  1.7670e-04  1.7670e-04  1.7670e-04  1.7670e-04  1.7670e-04  1.7670e-04  1.7670e-04
  1.7670e-04  1.7670e-04  1.7670e-04  1.7670e-04  1.7670e-04  1.7670e-04  1.7670e-04  1.7670e-04  1.7670e-04  1.7670e-04
  1.7670e-04  1.7670e-04  1.7670e-04  1.7670e-04  1.7670e-04  1.7670e-04  1.7670e-04  1.7670e-04  1.7670e-04  1.7670e-04
  1.7670e-04  1.7670e-04  1.7670e-04  1.7670e-04  1.7670e-04  1.7670e-04  1.7670e-04  1.7670e-04  1.7670e-04  1.7670e-04
  1.7670e-04  1.7670e-04  1.7670e-04  1.7670e-04  1.7670e-04  1.7670e-04  1.7670e-04 -8.9149e-02 -8.9149e-02 -8.9149e-02
 -8.9149e-02  1.7670e-04  1.7670e-04
  1.7670e-04  1.7670e-04  1.7670e-04  1.7670e-04  1.7670e-04  1.7670e-04  1.7670e-04  1.7670e-04  1.7670e-04  1.7670e-04
  1.7670e-04  1.7670e-04  1.7670e-04  1.7670e-04  1.7670e-04  1.7670e-04  1.7670e-04  1.7670e-04  1.7670e-04  1.7670e-04
  1.7670e-04  1.7670e-04  1.7670e-04  1.7670e-04  1.7670e-04  1.7670e-04  1.7670e-04  1.7670e-04  1.7670e-04  1.7670e-04
  1.7670e-04  1.7670e-04  1.7670e-04  1.7670e-04  1.7670e-04  1.7670e-04  1.7670e-04  1.7670e-04  1.7670e-04  1.7670e-04
  1.7670e-04  1.7670e-04  1.7670e-04  1.7670e-04  1.7670e-04  1.7670e-04  1.7670e-04  1.7670e-04  1.7670e-04  1.7670e-04
  1.7670e-04  1.7670e-04  1.7670e-04  1.7670e-04  1.7670e-04  1.7670e-04  1.7670e-04  1.7670e-04  1.7670e-04 -8.9149e-02
 -8.9149e-02  1.7670e-04  1.7670e-04
  1.7670e-04  1.7670e-04  1.7670e-04  1.7670e-04  1.7670e-04  1.7670e-04  1.7670e-04  1.7670e-04  1.7670e-04  1.7670e-04
  1.7670e-04  1.7670e-04  1.7670e-04  1.7670e-04  1.7670e-04  1.7670e-04  1.7670e-04  1.7670e-04  1.7670e-04  1.7670e-04
  1.7670e-04  1.7670e-04  1.7670e-04  1.7670e-04  1.7670e-04  1.7670e-04  1.7670e-04  1.7670e-04  1.7670e-04  1.7670e-04
  1.7670e-04  1.7670e-04  1.7670e-04  1.7670e-04  1.7670e-04  1.7670e-04  1.7670e-04  1.7670e-04  1.7670e-04  1.7670e-04
  1.7670e-04  1.7670e-04  1.7670e-04  1.7670e-04  1.7670e-04  1.7670e-04  1.7670e-04  1.7670e-04  1.7670e-04  1.7670e-04
  1.7670e-04  1.7670e-04  1.7670e-04  1.7670e-04  1.7670e-04  1.7670e-04  1.7670e-04  1.7670e-04  1.7670e-04 -8.9149e-02
 -8.9149e-02  1.7670e-04  1.7670e-04
  1.7670e-04  1.7670e-04  1.7670e-04  1.7670e-04  1.7670e-04  1.7670e-04  1.7670e-04  1.7670e-04  1.7670e-04  1.7670e-04
  1.7670e-04  1.7670e-04  1.7670e-04  1.7670e-04  1.7670e-04  1.7670e-04  1.7670e-04  1.7670e-04  1.7670e-04  1.7670e-04
  1.7670e-04  1.7670e-04  1.7670e-04  1.7670e-04  1.7670e-04  1.7670e-04  1.7670e-04  1.7670e-04  1.7670e-04  1.7670e-04
  1.7670e-04  1.7670e-04  1.7670e-04  1.7670e-04  1.7670e-04  1.7670e-04  1.7670e-04  1.7670e-04  1.7670e-04  1.7670e-04
  1.7670e-04  1.7670e-04  1.7670e-04  1.7670e-04  1.7670e-04  1.7670e-04  1.7670e-04  1.7670e-04  1.7670e-04  1.7670e-04
  1.7670e-04  1.7670e-04  1.7670e-04  1.7670e-04  1.7670e-04  1.7670e-04  1.7670e-04  1.7670e-04  1.7670e-04  1.7670e-04
  1.7670e-04  1.7670e-04  1.7670e-04
  1.7670e-04  1.7670e-04  1.7670e-04  1.7670e-04  1.7670e-04  1.7670e-04  1.7670e-04  1.7670e-04  1.7670e-04  1.7670e-04
  1.7670e-04  1.7670e-04  1.7670e-04  1.7670e-04  1.7670e-04  1.7670e-04  1.7670e-04  1.7670e-04  1.7670e-04  1.7670e-04
  1.7670e-04  1.7670e-04  1.7670e-04  1.7670e-04  1.7670e-04  1.7670e-04  1.7670e-04  1.7670e-04  1.7670e-04  1.7670e-04
  1.7670e-04  1.7670e-04  1.7670e-04  1.7670e-04  1.7670e-04  1.7670e-04  1.7670e-04  1.7670e-04  1.7670e-04  1.7670e-04
  1.7670e-04  1.7670e-04  1.7670e-04  1.7670e-04  1.7670e-04  1.7670e-04  1.7670e-04  1.7670e-04  1.7670e-04  1.7670e-04
  1.7670e-04  1.7670e-04  1.7670e-04  1.7670e-04  1.7670e-04  1.7670e-04  1.7670e-04  1.7670e-04  1.7670e-04  1.7670e-04
  1.7670e-04  1.7670e-04  1.7670e-04
  1.7670e-04  1.7670e-04  1.7670e-04  1.7670e-04  1.7670e-04  1.7670e-04  1.7670e-04  1.7670e-04  1.7670e-04  1.7670e-04
  1.7670e-04  1.7670e-04  1.7670e-04  1.7670e-04  1.7670e-04  1.7670e-04  1.7670e-04  1.7670e-04  1.7670e-04  1.7670e-04
  1.7670e-04  1.7670e-04  1.7670e-04  1.7670e-04  1.7670e-04  1.7670e-04  1.7670e-04  1.7670e-04  1.7670e-04  1.7670e-04
  1.7670e-04  1.7670e-04  1.7670e-04  1.7670e-04  1.7670e-04  1.7670e-04  1.7670e-04  1.7670e-04  1.7670e-04  1.7670e-04
  1.7670e-04  1.7670e-04  1.7670e-04  1.7670e-04  1.7670e-04  1.7670e-04  1.7670e-04  1.7670e-04  1.7670e-04  1.7670e-04
  1.7670e-04  1.7670e-04  1.7670e-04  1.7670e-04  1.7670e-04  1.7670e-04  1.7670e-04  1.7670e-04  1.7670e-04  1.7670e-04
  1.7670e-04  1.7670e-04  1.7670e-04
  1.7670e-04  1.7670e-04  1.7670e-04  1.7670e-04  1.7670e-04  1.7670e-04  1.7670e-04  1.7670e-04  1.7670e-04  1.7670e-04
  1.7670e-04  1.7670e-04  1.7670e-04  1.7670e-04  1.7670e-04  1.7670e-04  1.7670e-04  1.7670e-04  1.7670e-04  1.7670e-04
  1.7670e-04  1.7670e-04  1.7670e-04  1.7670e-04  1.7670e-04  1.7670e-04  1.7670e-04  1.7670e-04  1.7670e-04  1.7670e-04
  1.7670e-04  1.7670e-04  1.7670e-04  1.7670e-04  1.7670e-04  1.7670e-04  1.7670e-04  1.7670e-04  1.7670e-04  1.7670e-04
  1.7670e-04  1.7670e-04  1.7670e-04  1.7670e-04  1.7670e-04  1.7670e-04  1.7670e-04  1.7670e-04  1.7670e-04  1.7670e-04
  1.7670e-04  1.7670e-04  1.7670e-04  1.7670e-04  1.7670e-04  1.7670e-04  1.7670e-04  1.7670e-04  1.7670e-04  1.7670e-04
  1.7670e-04  1.7670e-04  1.7670e-04
  1.7670e-04  1.7670e-04  1.7670e-04  1.7670e-04  1.7670e-04  1.7670e-04  1.7670e-04  1.7670e-04  1.7670e-04  1.7670e-04
  1.7670e-04  1.7670e-04  1.7670e-04  1.7670e-04  1.7670e-04  1.7670e-04  1.7670e-04  1.7670e-04  1.7670e-04  1.7670e-04
  1.7670e-04  1.7670e-04  1.7670e-04  1.7670e-04  1.7670e-04  1.7670e-04  1.7670e-04  1.7670e-04  1.7670e-04  1.7670e-04
  1.7670e-04  1.7670e-04  1.7670e-04  1.7670e-04  1.7670e-04  1.7670e-04  1.7670e-04  1.7670e-04  1.7670e-04  1.7670e-04
  1.7670e-04  1.7670e-04  1.7670e-04  1.7670e-04  1.7670e-04  1.7670e-04  1.7670e-04  1.7670e-04  1.7670e-04  1.7670e-04
  1.7670e-04  1.7670e-04  1.7670e-04  1.7670e-04  1.7670e-04  1.7670e-04  1.7670e-04  1.7670e-04  1.7670e-04  1.7670e-04
  1.7670e-04  1.7670e-04  1.7670e-04
  1.7670e-04  1.7670e-04  1.7670e-04  1.7670e-04  1.7670e-04  1.7670e-04  1.7670e-04  1.7670e-04  1.7670e-04  1.7670e-04
  1.7670e-04  1.7670e-04  1.7670e-04  1.7670e-04  1.7670e-04  1.7670e-04  1.7670e-04  1.7670e-04  1.7670e-04  1.7670e-04
  1.7670e-04  1.7670e-04  1.7670e-04  1.7670e-04  1.7670e-04  1.7670e-04  1.7670e-04  1.7670e-04  1.7670e-04  1.7670e-04
  1.7670e-04  1.7670e-04  1.7670e-04  1.7670e-04  1.7670e-04  1.7670e-04  1.7670e-04  1.7670e-04  1.7670e-04  1.7670e-04
  1.7670e-04  1.7670e-04  1.7670e-04  1.7670e-04  1.7670e-04  1.7670e-04  1.7670e-04  1.7670e-04  1.7670e-04  1.7670e-04
  1.7670e-04  1.7670e-04  1.7670e-04  1.7670e-04  1.7670e-04  1.7670e-04  1.7670e-04  1.7670e-04  1.7670e-04  1.7670e-04
  1.7670e-04  1.7670e-04  1.7670e-04
  1.7670e-04  1.7670e-04  1.7670e-04  1.7670e-04  1.7670e-04  1.7670e-04  1.7670e-04  1.7670e-04  1.7670e-04  1.7670e-04
  1.7670e-04  1.7670e-04  1.7670e-04  1.7670e-04  1.7670e-04  1.7670e-04  1.7670e-04  1.7670e-04  1.7670e-04  1.7670e-04
  1.7670e-04  1.7670e-04  1.7670e-04  1.7670e-04  1.7670e-04  1.7670e-04  1.7670e-04  1.7670e-04  1.7670e-04  1.7670e-04
  1.7670e-04  1.7670e-04  1.7670e-04  1.7670e-04  1.7670e-04  1.7670e-04  1.7670e-04  1.7670e-04  1.7670e-04  1.7670e-04
  1.7670e-04  1.7670e-04  1.7670e-04  1.7670e-04  1.7670e-04  1.7670e-04  1.7670e-04  1.7670e-04  1.7670e-04  1.7670e-04
  1.7670e-04  1.7670e-04  1.7670e-04  1.7670e-04  1.7670e-04  1.7670e-04  1.7670e-04  1.7670e-04  1.7670e-04  1.7670e-04
  1.7670e-04  1.7670e-04  1.7670e-04
  1.7670e-04  1.7670e-04  1.7670e-04  1.7670e-04  1.7670e-04  1.7670e-04  1.7670e-04  1.7670e-04  1.7670e-04  1.7670e-04
  1.7670e-04  1.7670e-04  1.7670e-04  1.7670e-04  1.7670e-04  1.7670e-04  1.7670e-04  1.7670e-04  1.7670e-04  1.7670e-04
  1.7670e-04  1.7670e-04  1.7670e-04  1.7670e-04  1.7670e-04  1.7670e-04  1.7670e-04  1.7670e-04  1.7670e-04  1.7670e-04
  1.7670e-04  1.7670e-04  1.7670e-04  1.7670e-04  1.7670e-04  1.7670e-04  1.7670e-04  1.7670e-04  1.7670e-04  1.7670e-04
  1.7670e-04  1.7670e-04  1.7670e-04  1.7670e-04  1.7670e-04  1.7670e-04  1.7670e-04  1.7670e-04  1.7670e-04  1.7670e-04
  1.7670e-04  1.7670e-04  1.7670e-04  1.7670e-04  1.7670e-04  1.7670e-04  1.7670e-04  1.7670e-04  1.7670e-04  1.7670e-04
  1.7670e-04  1.7670e-04  1.7670e-04
  1.7670e-04  1.7670e-04  1.7670e-04  1.7670e-04  1.7670e-04  1.7670e-04  1.7670e-04  1.7670e-04  1.7670e-04  1.7670e-04
  1.7670e-04  1.7670e-04  1.7670e-04  1.7670e-04  1.7670e-04  1.7670e-04  1.7670e-04  1.7670e-04  1.7670e-04  1.7670e-04
  1.7670e-04  1.7670e-04  1.7670e-04  1.7670e-04  1.7670e-04  1.7670e-04  1.7670e-04  1.7670e-04  1.7670e-04  1.7670e-04
  1.7670e-04  1.7670e-04  1.7670e-04  1.7670e-04  1.7670e-04  1.7670e-04  1.7670e-04  1.7670e-04  1.7670e-04  1.7670e-04
  1.7670e-04  1.7670e-04  1.7670e-04  1.7670e-04  1.7670e-04  1.7670e-04  1.7670e-04  1.7670e-04  1.7670e-04  1.7670e-04
  1.7670e-04  1.7670e-04  1.7670e-04  1.7670e-04  1.7670e-04  1.7670e-04  1.7670e-04  1.7670e-04  1.7670e-04  1.7670e-04
  1.7670e-04  1.7670e-04  1.7670e-04
  1.7670e-04  1.7670e-04  1.7670e-04  1.7670e-04  1.7670e-04  1.7670e-04  1.7670e-04  1.7670e-04  1.7670e-04  1.7670e-04
  1.7670e-04  1.7670e-04  1.7670e-04  1.7670e-04  1.7670e-04  1.7670e-04  1.7670e-04  1.7670e-04  1.7670e-04  1.7670e-04
  1.7670e-04  1.7670e-04  1.7670e-04  1.7670e-04  1.7670e-04  1.7670e-04  1.7670e-04  1.7670e-04  1.7670e-04  1.7670e-04
  1.7670e-04  1.7670e-04  1.7670e-04  1.7670e-04  1.7670e-04  1.7670e-04  1.7670e-04  1.7670e-04  1.7670e-04  1.7670e-04
  1.7670e-04  1.7670e-04  1.7670e-04  1.7670e-04  1.7670e-04  1.7670e-04  1.7670e-04  1.7670e-04  1.7670e-04  1.7670e-04
  1.7670e-04  1.7670e-04  1.7670e-04  1.7670e-04  1.7670e-04  1.7670e-04  1.7670e-04  1.7670e-04  1.7670e-04  1.7670e-04
  1.7670e-04  1.7670e-04  1.7670e-04
  1.7670e-04  1.7670e-04  1.7670e-04  1.7670e-04  1.7670e-04  1.7670e-04  1.7670e-04  1.7670e-04  1.7670e-04  1.7670e-04
  1.7670e-04  1.7670e-04  1.7670e-04  1.7670e-04  1.7670e-04  1.7670e-04  1.7670e-04  1.7670e-04  1.7670e-04  1.7670e-04
  1.7670e-04  1.7670e-04  1.7670e-04  1.7670e-04  1.7670e-04  1.7670e-04  1.7670e-04  1.7670e-04  1.7670e-04  1.7670e-04
  1.7670e-04  1.7670e-04  1.7670e-04  1.7670e-04  1.7670e-04  1.7670e-04  1.7670e-04  1.7670e-04  1.7670e-04  1.7670e-04
  1.7670e-04  1.7670e-04  1.7670e-04  1.7670e-04  1.7670e-04  1.7670e-04  1.7670e-04  1.7670e-04  1.7670e-04  1.7670e-04
  1.7670e-04  1.7670e-04  1.7670e-04  1.7670e-04  1.7670e-04  1.7670e-04  1.7670e-04  1.7670e-04  1.7670e-04  1.7670e-04
  1.7670e-04  1.7670e-04  1.7670e-04
  1.7670e-04  1.7670e-04  1.7670e-04  1.7670e-04  1.7670e-04  1.7670e-04  1.7670e-04  1.7670e-04  1.7670e-04  1.7670e-04
  1.7670e-04  1.7670e-04  1.7670e-04  1.7670e-04  1.7670e-04  1.7670e-04  1.7670e-04  1.7670e-04  1.7670e-04  1.7670e-04
  1.7670e-04  1.7670e-04  1.7670e-04  1.7670e-04  1.7670e-04  1.7670e-04  1.7670e-04  1.7670e-04  1.7670e-04  1.7670e-04
  1.7670e-04  1.7670e-04  1.7670e-04  1.7670e-04  1.7670e-04  1.7670e-04  1.7670e-04  1.7670e-04  1.7670e-04  1.7670e-04
  1.7670e-04  1.7670e-04  1.7670e-04  1.7670e-04  1.7670e-04  1.7670e-04  1.7670e-04  1.7670e-04  1.7670e-04  1.7670e-04
  1.7670e-04  1.7670e-04  1.7670e-04  1.7670e-04  1.7670e-04  1.7670e-04  1.7670e-04  1.7670e-04  1.7670e-04  1.7670e-04
  1.7670e-04  1.7670e-04  1.7670e-04
  1.7670e-04  1.7670e-04  1.7670e-04  1.7670e-04  1.7670e-04  1.7670e-04  1.7670e-04  1.7670e-04  1.7670e-04  1.7670e-04
  1.7670e-04  1.7670e-04  1.7670e-04  1.7670e-04  1.7670e-04  1.7670e-04  1.7670e-04  1.7670e-04  1.7670e-04  1.7670e-04
  1.7670e-04  1.7670e-04  1.7670e-04  1.7670e-04  1.7670e-04  1.7670e-04  1.7670e-04  1.7670e-04  1.7670e-04  1.7670e-04
  1.7670e-04  1.7670e-04  1.7670e-04  1.7670e-04  1.7670e-04  1.7670e-04  1.7670e-04  1.7670e-04  1.7670e-04  1.7670e-04
  1.7670e-04  1.7670e-04  1.7670e-04  1.7670e-04  1.7670e-04  1.7670e-04  1.7670e-04  1.7670e-04  1.7670e-04  1.7670e-04
  1.7670e-04  1.7670e-04  1.7670e-04  1.7670e-04  1.7670e-04  1.7670e-04  1.7670e-04  1.7670e-04  1.7670e-04  1.7670e-04
  1.7670e-04  1.7670e-04  1.7670e-04
  1.7670e-04  1.7670e-04  1.7670e-04  1.7670e-04  1.7670e-04  1.7670e-04  1.7670e-04  1.7670e-04  1.7670e-04  1.7670e-04
  1.7670e-04  1.7670e-04  1.7670e-04  1.7670e-04  1.7670e-04  1.7670e-04  1.7670e-04  1.7670e-04  1.7670e-04  1.7670e-04
  1.7670e-04  1.7670e-04  1.7670e-04  1.7670e-04  1.7670e-04  1.7670e-04  1.7670e-04  1.7670e-04  1.7670e-04  1.7670e-04
  1.7670e-04  1.7670e-04  1.7670e-04  1.7670e-04  1.7670e-04  1.7670e-04  1.7670e-04  1.7670e-04  1.7670e-04  1.7670e-04
  1.7670e-04  1.7670e-04  1.7670e-04  1.7670e-04  1.7670e-04  1.7670e-04  1.7670e-04  1.7670e-04  1.7670e-04  1.7670e-04
  1.7670e-04  1.7670e-04  1.7670e-04  1.7670e-04  1.7670e-04  1.7670e-04  1.7670e-04  1.7670e-04  1.7670e-04  1.7670e-04
  1.7670e-04  1.7670e-04  1.7670e-04
  1.7670e-04  1.7670e-04  1.7670e-04  1.7670e-04  1.7670e-04  1.7670e-04  1.7670e-04  1.7670e-04  1.7670e-04  1.7670e-04
  1.7670e-04  1.7670e-04  1.7670e-04  1.7670e-04  1.7670e-04  1.7670e-04  1.7670e-04  1.7670e-04  1.7670e-04  1.7670e-04
  1.7670e-04  1.7670e-04  1.7670e-04  1.7670e-04  1.7670e-04  1.7670e-04  1.7670e-04  1.7670e-04  1.7670e-04  1.7670e-04
  1.7670e-04  1.7670e-04  1.7670e-04  1.7670e-04  1.7670e-04  1.7670e-04  1.7670e-04  1.7670e-04  1.7670e-04  1.7670e-04
  1.7670e-04  1.7670e-04  1.7670e-04  1.7670e-04  1.7670e-04  1.7670e-04  1.7670e-04  1.7670e-04  1.7670e-04  1.7670e-04
  1.7670e-04  1.7670e-04  1.7670e-04  1.7670e-04  1.7670e-04  1.7670e-04  1.7670e-04  1.7670e-04  1.7670e-04  1.7670e-04
  1.7670e-04  1.7670e-04  1.7670e-04
  1.7670e-04  1.7670e-04  1.7670e-04  1.7670e-04  1.7670e-04  1.7670e-04  1.7670e-04  1.7670e-04  1.7670e-04  1.7670e-04
  1.7670e-04  1.7670e-04  1.7670e-04  1.7670e-04  1.7670e-04  1.7670e-04  1.7670e-04  1.7670e-04  1.7670e-04  1.7670e-04
  1.7670e-04  1.7670e-04  1.7670e-04  1.7670e-04  1.7670e-04  1.7670e-04  1.7670e-04  1.7670e-04  1.7670e-04  1.7670e-04
  1.7670e-04  1.7670e-04  1.7670e-04  1.7670e-04  1.7670e-04  1.7670e-04  1.7670e-04  1.7670e-04  1.7670e-04  1.7670e-04
  1.7670e-04  1.7670e-04  1.7670e-04  1.7670e-04  1.7670e-04  1.7670e-04  1.7670e-04  1.7670e-04  1.7670e-04  1.7670e-04
  1.7670e-04  1.7670e-04  1.7670e-04  1.7670e-04  1.7670e-04  1.7670e-04  1.7670e-04  1.7670e-04  1.7670e-04  1.7670e-04
  1.7670e-04  1.7670e-04  1.7670e-04
  1.7670e-04  1.7670e-04  1.7670e-04  1.7670e-04  1.7670e-04  1.7670e-04  1.7670e-04  1.7670e-04  1.7670e-04  1.7670e-04
  1.7670e-04  1.7670e-04  1.7670e-04  1.7670e-04  1.7670e-04  1.7670e-04  1.7670e-04  1.7670e-04  1.7670e-04  1.7670e-04
  1.7670e-04  1.7670e-04  1.7670e-04  1.7670e-04  1.7670e-04  1.7670e-04  1.7670e-04  1.7670e-04  1.7670e-04  1.7670e-04
  1.7670e-04  1.7670e-04  1.7670e-04  1.7670e-04  1.7670e-04  1.7670e-04  1.7670e-04  1.7670e-04  1.7670e-04  1.7670e-04
  1.7670e-04  1.7670e-04  1.7670e-04  1.7670e-04  1.7670e-04  1.7670e-04  1.7670e-04  1.7670e-04  1.7670e-04  1.7670e-04
  1.7670e-04  1.7670e-04  1.7670e-04  1.7670e-04  1.7670e-04  1.7670e-04  1.7670e-04  1.7670e-04  1.7670e-04  1.7670e-04
  1.7670e-04  1.7670e-04  1.7670e-04
  1.7670e-04 -2.0269e-02 -2.0269e-02 -2.0269e-02  1.7670e-04  1.7670e-04  1.7670e-04  1.7670e-04  1.7670e-04  1.7670e-04
  1.7670e-04  1.7670e-04  1.7670e-04  1.7670e-04  1.7670e-04  1.7670e-04  1.7670e-04  1.7670e-04  1.7670e-04  1.7670e-04
  1.7670e-04  1.7670e-04  1.7670e-04  1.7670e-04  1.7670e-04  1.7670e-04  1.7670e-04  1.7670e-04  1.7670e-04  1.7670e-04
  1.7670e-04  1.7670e-04  1.7670e-04  1.7670e-04  1.7670e-04  1.7670e-04  1.7670e-04  1.7670e-04  1.7670e-04  1.7670e-04
  1.7670e-04  1.7670e-04  1.7670e-04  1.7670e-04  1.7670e-04  1.7670e-04  1.7670e-04  1.7670e-04  1.7670e-04  1.7670e-04
  1.7670e-04  1.7670e-04  1.7670e-04  1.7670e-04  1.7670e-04  1.7670e-04  1.7670e-04  1.7670e-04  1.7670e-04  1.7670e-04
  1.7670e-04  1.7670e-04  1.7670e-04
  1.7670e-04 -2.0269e-02 -2.0269e-02 -2.0269e-02 -2.0269e-02  1.7670e-04  1.7670e-04  1.7670e-04  1.7670e-04  1.7670e-04
  1.7670e-04  1.7670e-04  1.7670e-04  1.7670e-04  1.7670e-04  1.7670e-04  1.7670e-04  1.7670e-04  1.7670e-04  1.7670e-04
  1.7670e-04  1.7670e-04  1.7670e-04  1.7670e-04  1.7670e-04  1.7670e-04  1.7670e-04  1.7670e-04  1.7670e-04  1.7670e-04
  1.7670e-04  1.7670e-04  1.7670e-04  1.7670e-04  1.7670e-04  1.7670e-04  1.7670e-04  1.7670e-04  1.7670e-04  1.7670e-04
  1.7670e-04  1.7670e-04  1.7670e-04  1.7670e-04  1.7670e-04  1.7670e-04  1.7670e-04  1.7670e-04  1.7670e-04  1.7670e-04
  1.7670e-04  1.7670e-04  1.7670e-04  1.7670e-04  1.7670e-04  1.7670e-04  1.7670e-04  1.7670e-04  1.7670e-04  1.7670e-04
  1.7670e-04  1.7670e-04  1.7670e-04
  1.7670e-04 -2.0269e-02 -2.0269e-02 -2.0269e-02 -2.0269e-02  1.7670e-04  1.7670e-04  1.7670e-04  1.7670e-04  1.7670e-04
  1.7670e-04  1.7670e-04  1.7670e-04  1.7670e-04  1.7670e-04  1.7670e-04  1.7670e-04  1.7670e-04  1.7670e-04  1.7670e-04
  1.7670e-04  1.7670e-04  1.7670e-04  1.7670e-04  1.7670e-04  1.7670e-04  1.7670e-04  1.7670e-04  1.7670e-04  1.7670e-04
  1.7670e-04  1.7670e-04  1.7670e-04  1.7670e-04  1.7670e-04  1.7670e-04  1.7670e-04  1.7670e-04  1.7670e-04  1.7670e-04
  1.7670e-04  1.7670e-04  1.7670e-04  1.7670e-04  1.7670e-04  1.7670e-04  1.7670e-04  1.7670e-04  1.7670e-04  1.7670e-04
  1.7670e-04  1.7670e-04  1.7670e-04  1.7670e-04  1.7670e-04  1.7670e-04  1.7670e-04  1.7670e-04  1.7670e-04  1.7670e-04
  1.7670e-04  1.7670e-04  1.7670e-04
  1.7670e-04 -2.0269e-02 -2.0269e-02 -2.0269e-02  1.7670e-04  1.7670e-04  1.7670e-04  1.7670e-04  1.7670e-04  1.7670e-04
  1.7670e-04  1.7670e-04  1.7670e-04  1.7670e-04  1.7670e-04  1.7670e-04  1.7670e-04  1.7670e-04  1.7670e-04  1.7670e-04
  1.7670e-04  1.7670e-04  1.7670e-04  1.7670e-04  1.7670e-04  1.7670e-04  1.7670e-04  1.7670e-04  1.7670e-04  1.7670e-04
  1.7670e-04  1.7670e-04  1.7670e-04  1.7670e-04  1.7670e-04  1.7670e-04  1.7670e-04  1.7670e-04  1.7670e-04  1.7670e-04
  1.7670e-04  1.7670e-04  1.7670e-04  1.7670e-04  1.7670e-04  1.7670e-04  1.7670e-04  1.7670e-04  1.7670e-04  1.7670e-04
  1.7670e-04  1.7670e-04  1.7670e-04  1.7670e-04  1.7670e-04  1.7670e-04  1.7670e-04  1.7670e-04  1.7670e-04  1.7670e-04
  1.7670e-04  1.7670e-04  1.7670e-04
  1.7670e-04 -2.0269e-02 -2.0269e-02 -2.0269e-02  1.7670e-04  1.7670e-04  1.7670e-04  1.7670e-04  1.7670e-04  1.7670e-04
  1.7670e-04  1.7670e-04  1.7670e-04  1.7670e-04  1.7670e-04  1.7670e-04  1.7670e-04  1.7670e-04  1.7670e-04  1.7670e-04
  1.7670e-04  1.7670e-04  1.7670e-04  1.7670e-04  1.7670e-04  1.7670e-04  1.7670e-04  1.7670e-04  1.7670e-04  1.7670e-04
  1.7670e-04  1.7670e-04  1.7670e-04  1.7670e-04  1.7670e-04  1.7670e-04  1.7670e-04  1.7670e-04  1.7670e-04  1.7670e-04
  1.7670e-04  1.7670e-04  1.7670e-04  1.7670e-04  1.7670e-04  1.7670e-04  1.7670e-04  1.7670e-04  1.7670e-04  1.7670e-04
  1.7670e-04  1.7670e-04  1.7670e-04  1.7670e-04  1.7670e-04  1.7670e-04  1.7670e-04  1.7670e-04  1.7670e-04  1.7670e-04
  1.7670e-04  1.7670e-04  1.7670e-04
  1.7670e-04 -2.0269e-02  1.7670e-04  1.7670e-04  1.7670e-04  1.7670e-04  1.7670e-04  1.7670e-04  1.7670e-04  1.7670e-04
  1.7670e-04  1.7670e-04  1.7670e-04  1.7670e-04  1.7670e-04  1.7670e-04  1.7670e-04  1.7670e-04  1.7670e-04  1.7670e-04
  1.7670e-04  1.7670e-04  1.7670e-04  1.7670e-04  1.7670e-04  1.7670e-04  1.7670e-04  1.7670e-04  1.7670e-04  1.7670e-04
  1.7670e-04  1.7670e-04  1.7670e-04  1.7670e-04  1.7670e-04  1.7670e-04  1.7670e-04  1.7670e-04  1.7670e-04  1.7670e-04
  1.7670e-04  1.7670e-04  1.7670e-04  1.7670e-04  1.7670e-04  1.7670e-04  1.7670e-04  1.7670e-04  1.7670e-04  1.7670e-04
  1.7670e-04  1.7670e-04  1.7670e-04  1.7670e-04  1.7670e-04  1.7670e-04  1.7670e-04  1.7670e-04  1.7670e-04  1.7670e-04
  1.7670e-04  1.7670e-04  1.7670e-04
  1.7670e-04  1.7670e-04  1.7670e-04  1.7670e-04  1.7670e-04  1.7670e-04  1.7670e-04  1.7670e-04  1.7670e-04  1.7670e-04
  1.7670e-04  1.7670e-04  1.7670e-04  1.7670e-04  1.7670e-04  1.7670e-04  1.7670e-04  1.7670e-04  1.7670e-04  1.7670e-04
  1.7670e-04  1.7670e-04  1.7670e-04  1.7670e-04  1.7670e-04  1.7670e-04  1.7670e-04  1.7670e-04  1.7670e-04  1.7670e-04
  1.7670e-04  1.7670e-04  1.7670e-04  1.7670e-04  1.7670e-04  1.7670e-04  1.7670e-04  1.7670e-04  1.7670e-04  1.7670e-04
  1.7670e-04  1.7670e-04  1.7670e-04  1.7670e-04  1.7670e-04  1.7670e-04  1.7670e-04  1.7670e-04  1.7670e-04  1.7670e-04
  1.7670e-04  1.7670e-04  1.7670e-04  1.7670e-04  1.7670e-04  1.7670e-04  1.7670e-04  1.7670e-04  1.7670e-04  1.7670e-04
  1.7670e-04  1.7670e-04  1.7670e-04
  1.7670e-04  1.7670e-04  1.7670e-04  1.7670e-04  1.7670e-04  1.7670e-04  1.7670e-04  1.7670e-04  1.7670e-04  1.7670e-04
  1.7670e-04  1.7670e-04  1.7670e-04  1.7670e-04  1.7670e-04  1.7670e-04  1.7670e-04  1.7670e-04  1.7670e-04  1.7670e-04
  1.7670e-04  1.7670e-04  1.7670e-04  1.7670e-04  1.7670e-04  1.7670e-04  1.7670e-04  1.7670e-04  1.7670e-04  1.7670e-04
  1.7670e-04  1.7670e-04  1.7670e-04  1.7670e-04  1.7670e-04  1.7670e-04  1.7670e-04  1.7670e-04  1.7670e-04  1.7670e-04
  1.7670e-04  1.7670e-04  1.7670e-04  1.7670e-04  1.7670e-04  1.7670e-04  1.7670e-04  1.7670e-04  1.7670e-04  1.7670e-04
  1.7670e-04  1.7670e-04  1.7670e-04  1.7670e-04  1.7670e-04  1.7670e-04  1.7670e-04  1.7670e-04  1.7670e-04  1.7670e-04
  1.7670e-04  1.7670e-04  1.7670e-04
  1.7670e-04  1.7670e-04  1.7670e-04  1.7670e-04  1.7670e-04  1.7670e-04  1.7670e-04  1.7670e-04  1.7670e-04  1.7670e-04
  1.7670e-04  1.7670e-04  1.7670e-04  1.7670e-04  1.7670e-04  1.7670e-04  1.7670e-04  1.7670e-04  1.7670e-04  1.7670e-04
  1.7670e-04  1.7670e-04  1.7670e-04  1.7670e-04  1.7670e-04  1.7670e-04  1.7670e-04  1.7670e-04  1.7670e-04  1.7670e-04
  1.7670e-04  1.7670e-04  1.7670e-04  1.7670e-04  1.7670e-04  1.7670e-04  1.7670e-04  1.7670e-04  1.7670e-04  1.7670e-04
  1.7670e-04  1.7670e-04  1.7670e-04  1.7670e-04  1.7670e-04  1.7670e-04  1.7670e-04  1.7670e-04  1.7670e-04  1.7670e-04
  1.7670e-04  1.7670e-04  1.7670e-04  1.7670e-04  1.7670e-04  1.7670e-04  1.7670e-04  1.7670e-04  1.7670e-04  1.7670e-04
  1.7670e-04  1.7670e-04  1.7670e-04
  1.7670e-04  1.7670e-04  1.7670e-04  1.7670e-04  1.7670e-04  1.7670e-04  1.7670e-04  1.7670e-04  1.7670e-04  1.7670e-04
  1.7670e-04  1.7670e-04  1.7670e-04  1.7670e-04  1.7670e-04  1.7670e-04  1.7670e-04  1.7670e-04  1.7670e-04  1.7670e-04
  1.7670e-04  1.7670e-04  1.7670e-04  1.7670e-04  1.7670e-04  1.7670e-04  1.7670e-04  1.7670e-04  1.7670e-04  1.7670e-04
  1.7670e-04  1.7670e-04  1.7670e-04  1.7670e-04  1.7670e-04  1.7670e-04  1.7670e-04  1.7670e-04  1.7670e-04  1.7670e-04
  1.7670e-04  1.7670e-04  1.7670e-04  1.7670e-04  1.7670e-04  1.7670e-04  1.7670e-04  1.7670e-04  1.7670e-04  1.7670e-04
  1.7670e-04  1.7670e-04  1.7670e-04  1.7670e-04  1.7670e-04  1.7670e-04  1.7670e-04  1.7670e-04  1.7670e-04  1.7670e-04
  1.7670e-04  1.7670e-04  1.7670e-04
  1.7670e-04  1.7670e-04  1.7670e-04  1.7670e-04  1.7670e-04  1.7670e-04  1.7670e-04  1.7670e-04  1.7670e-04  1.7670e-04
  1.7670e-04  1.7670e-04  1.7670e-04  1.7670e-04  1.7670e-04  1.7670e-04  1.7670e-04  1.7670e-04  1.7670e-04  1.7670e-04
  1.7670e-04  1.7670e-04  1.7670e-04  1.7670e-04  1.7670e-04  1.7670e-04  1.7670e-04  1.7670e-04  1.7670e-04  1.7670e-04
  1.7670e-04  1.7670e-04  1.7670e-04  1.7670e-04  1.7670e-04  1.7670e-04  1.7670e-04  1.7670e-04  1.7670e-04  1.7670e-04
  1.7670e-04  1.7670e-04  1.7670e-04  1.7670e-04  1.7670e-04  1.7670e-04  1.7670e-04  1.7670e-04  1.7670e-04  1.7670e-04
  1.7670e-04  1.7670e-04  1.7670e-04  1.7670e-04  1.7670e-04  1.7670e-04  1.7670e-04  1.7670e-04  1.7670e-04  1.7670e-04
  1.7670e-04  1.7670e-04  1.7670e-04
  1.7670e-04  1.7670e-04  1.7670e-04  1.7670e-04  1.7670e-04  1.7670e-04  1.7670e-04  1.7670e-04  1.7670e-04  1.7670e-04
  1.7670e-04  1.7670e-04  1.7670e-04  1.7670e-04  1.7670e-04  1.7670e-04  1.7670e-04  1.7670e-04  1.7670e-04  1.7670e-04
  1.7670e-04  1.7670e-04  1.7670e-04  1.7670e-04  1.7670e-04  1.7670e-04  1.7670e-04  1.7670e-04  1.7670e-04  1.7670e-04
  1.7670e-04  1.7670e-04  1.7670e-04  1.7670e-04  1.7670e-04  1.7670e-04  1.7670e-04  1.7670e-04  1.7670e-04  1.7670e-04
  1.7670e-04  1.7670e-04  1.7670e-04  1.7670e-04  1.7670e-04  1.7670e-04  1.7670e-04  1.7670e-04  1.7670e-04  1.7670e-04
  1.7670e-04  1.7670e-04  1.7670e-04  1.7670e-04  1.7670e-04  1.7670e-04  1.7670e-04  1.7670e-04  1.7670e-04  1.7670e-04
  1.7670e-04  1.7670e-04  1.7670e-04
  1.7670e-04  1.7670e-04  1.7670e-04  1.7670e-04  1.7670e-04  1.7670e-04  1.7670e-04  1.7670e-04  1.7670e-04  1.7670e-04
  1.7670e-04  1.7670e-04  1.7670e-04  1.7670e-04  1.7670e-04  1.7670e-04  1.7670e-04  1.7670e-04  1.7670e-04  1.7670e-04
  1.7670e-04  1.7670e-04  1.7670e-04  1.7670e-04  1.7670e-04  1.7670e-04  1.7670e-04  1.7670e-04  1.7670e-04  1.7670e-04
  1.7670e-04  1.7670e-04  1.7670e-04  1.7670e-04  1.7670e-04  1.7670e-04  1.7670e-04  1.7670e-04  1.7670e-04  1.7670e-04
  1.7670e-04  1.7670e-04  1.7670e-04  1.7670e-04  1.7670e-04  1.7670e-04  1.7670e-04  1.7670e-04  1.7670e-04  1.7670e-04
  1.7670e-04  1.7670e-04  1.7670e-04  1.7670e-04  1.7670e-04  1.7670e-04  1.7670e-04  1.7670e-04  1.7670e-04  1.7670e-04
  1.7670e-04  1.7670e-04  1.7670e-04
  1.7670e-04  1.7670e-04  1.7670e-04  1.7670e-04  1.7670e-04  1.7670e-04  1.7670e-04  1.7670e-04  1.7670e-04  1.7670e-04
  1.7670e-04  1.7670e-04  1.7670e-04  1.7670e-04  1.7670e-04  1.7670e-04  1.7670e-04  1.7670e-04  1.7670e-04  1.7670e-04
  1.7670e-04  1.7670e-04  1.7670e-04  1.7670e-04  1.7670e-04  1.7670e-04  1.7670e-04  1.7670e-04  1.7670e-04  1.7670e-04
  1.7670e-04  1.7670e-04  1.7670e-04  1.7670e-04  1.7670e-04  1.7670e-04  1.7670e-04  1.7670e-04  1.7670e-04  1.7670e-04
  1.7670e-04  1.7670e-04  1.7670e-04  1.7670e-04  1.7670e-04  1.7670e-04  1.7670e-04  1.7670e-04  1.7670e-04  1.7670e-04
  1.7670e-04  1.7670e-04  1.7670e-04  1.7670e-04  1.7670e-04  1.7670e-04  1.7670e-04  1.7670e-04  1.7670e-04  1.7670e-04
  1.7670e-04  1.7670e-04  1.7670e-04
  1.7670e-04  1.7670e-04  1.7670e-04  1.7670e-04  1.7670e-04  1.7670e-04  1.7670e-04  1.7670e-04  1.7670e-04  1.7670e-04
  1.7670e-04  1.7670e-04  1.7670e-04  1.7670e-04  1.7670e-04  1.7670e-04  1.7670e-04  1.7670e-04  1.7670e-04  1.7670e-04
  1.7670e-04  1.7670e-04  1.7670e-04  1.7670e-04  1.7670e-04  1.7670e-04  1.7670e-04  1.7670e-04  1.7670e-04  1.7670e-04
  1.7670e-04  1.7670e-04  1.7670e-04  1.7670e-04  1.7670e-04  1.7670e-04  1.7670e-04  1.7670e-04  1.7670e-04  1.7670e-04
  1.7670e-04  1.7670e-04  1.7670e-04  1.7670e-04  1.7670e-04  1.7670e-04  1.7670e-04  1.7670e-04  1.7670e-04  1.7670e-04
  1.7670e-04  1.7670e-04  1.7670e-04  1.7670e-04  1.7670e-04  1.7670e-04  1.7670e-04  1.7670e-04  1.7670e-04  1.7670e-04
  1.7670e-04  1.7670e-04  1.7670e-04
  1.7670e-04  1.7670e-04  1.7670e-04  1.7670e-04  1.7670e-04  1.7670e-04  1.7670e-04  1.7670e-04  1.7670e-04  1.7670e-04
  1.7670e-04  1.7670e-04  1.7670e-04  1.7670e-04  1.7670e-04  1.7670e-04  1.7670e-04  1.7670e-04  1.7670e-04  1.7670e-04
  1.7670e-04  1.7670e-04  1.7670e-04  1.7670e-04  1.7670e-04  1.7670e-04  1.7670e-04  1.7670e-04  1.7670e-04  1.7670e-04
  1.7670e-04  1.7670e-04  1.7670e-04  1.7670e-04  1.7670e-04  1.7670e-04  1.7670e-04  1.7670e-04  1.7670e-04  1.7670e-04
  1.7670e-04  1.7670e-04  1.7670e-04  1.7670e-04  1.7670e-04  1.7670e-04  1.7670e-04  1.7670e-04  1.7670e-04  1.7670e-04
  1.7670e-04  1.7670e-04  1.7670e-04  1.7670e-04  1.7670e-04  1.7670e-04  1.7670e-04  1.7670e-04  1.7670e-04  1.7670e-04
  1.7670e-04  1.7670e-04  1.7670e-04