# EVT6 input file, prepared by MF5to6 on 7/11/2022 at 14:24:43.

BEGIN Options
  READASARRAYS
  PRINT_INPUT
  SAVE_FLOWS
  FIXED_CELL
END Options

BEGIN PERIOD 1
  SURFACE
    INTERNAL  FACTOR  1.0  IPRN   12
  4395.400       4385.400       4371.300       4369.300       4374.800       4374.700
  4394.500       4407.300       4405.800       4384.800       4378.100       4386.200
  4393.100       4401.200       4418.900       4440.100       4457.700       4472.000
  4467.100       4474.600       4484.300       4500.200       4525.600       4540.800
  4546.300       4545.500       4538.400       4536.100       4528.200       4561.000
  4573.100       4601.900       4673.000       4822.200       4846.600       4819.300
  4875.500       4900.700       4857.700       4802.800       4845.100       4810.700
  4765.400       4758.300       4719.000       4666.100       4650.300       4628.700
  4598.800       4596.400       4572.900       4558.400       4541.700       4526.200
  4516.700       4509.200       4506.500       4502.100       4502.600       4506.200
  4512.400       4519.300       4526.300
  4417.500       4418.600       4411.000       4391.300       4375.200       4377.200
  4384.600       4394.700       4415.500       4402.900       4389.200       4393.800
  4401.800       4422.600       4433.800       4443.200       4469.700       4481.300
  4483.800       4490.500       4508.300       4536.600       4578.100       4679.300
  4623.000       4580.300       4567.700       4565.400       4543.600       4567.900
  4595.700       4615.300       4651.700       4757.000       4850.500       4871.400
  4882.500       4880.100       4849.400       4835.300       4845.700       4796.100
  4750.900       4725.500       4708.100       4680.000       4681.700       4673.700
  4624.600       4590.400       4580.000       4557.700       4540.800       4526.500
  4520.700       4518.400       4511.400       4506.100       4505.000       4508.500
  4514.200       4521.100       4530.200
  4403.900       4417.600       4424.500       4413.000       4403.100       4389.000
  4387.200       4394.800       4413.000       4422.300       4419.600       4420.300
  4418.000       4430.200       4443.800       4454.100       4462.100       4480.200
  4495.100       4510.000       4535.200       4564.600       4629.300       4721.300
  4644.400       4614.100       4587.800       4575.400       4573.900       4582.100
  4617.600       4646.100       4697.300       4806.100       4841.300       4898.700
  4895.700       4874.200       4864.300       4852.700       4820.800       4785.700
  4767.000       4743.100       4736.000       4721.100       4701.700       4668.900
  4643.300       4628.700       4608.700       4567.900       4546.900       4533.300
  4524.900       4521.900       4519.400       4510.200       4506.900       4508.900
  4515.000       4522.100       4535.000
  4381.800       4398.700       4404.300       4407.900       4404.900       4405.400
  4396.800       4401.700       4420.000       4443.700       4462.400       4461.200
  4446.000       4438.400       4451.700       4464.900       4478.000       4478.400
  4502.200       4523.500       4548.100       4583.700       4642.300       4749.100
  4713.100       4647.700       4612.000       4596.600       4605.200       4625.300
  4635.200       4736.500       4801.500       4895.500       4947.200       4936.500
  4905.300       4888.500       4877.800       4837.600       4839.400       4842.600
  4807.200       4769.500       4735.800       4716.700       4694.500       4675.300
  4663.100       4641.200       4599.300       4562.000       4547.500       4539.700
  4532.100       4525.400       4524.500       4519.800       4512.000       4510.200
  4516.200       4521.900       4527.700
  4399.400       4407.000       4414.500       4413.200       4419.800       4412.600
  4401.700       4406.000       4423.200       4443.200       4457.900       4467.600
  4465.500       4457.300       4469.700       4482.400       4499.200       4505.500
  4518.400       4522.800       4536.000       4580.700       4633.700       4723.000
  4711.700       4662.300       4628.000       4634.500       4658.900       4711.500
  4656.000       4706.800       4833.900       4968.900       4983.900       4952.700
  4945.300       4929.700       4881.700       4892.200       4904.800       4896.900
  4855.600       4806.100       4776.300       4754.600       4730.100       4688.500
  4653.600       4618.100       4586.900       4566.900       4557.200       4549.200
  4540.000       4534.400       4531.000       4526.900       4520.200       4519.400
  4522.200       4523.900       4527.900
  4400.700       4414.500       4425.100       4428.400       4446.200       4429.900
  4412.400       4417.600       4425.400       4434.800       4446.000       4460.600
  4473.800       4477.500       4492.500       4506.100       4525.800       4544.500
  4581.200       4568.400       4541.900       4583.700       4639.800       4686.800
  4744.000       4706.700       4666.500       4686.800       4723.500       4860.800
  4723.300       4740.900       4930.300       5034.900       5023.000       4984.500
  4951.400       4929.100       4900.700       4902.300       4894.400       4859.500
  4811.900       4783.800       4751.500       4726.900       4703.900       4700.900
  4680.200       4653.300       4606.700       4579.800       4570.900       4564.500
  4548.000       4542.100       4535.500       4529.400       4526.200       4524.800
  4527.900       4527.000       4534.400
  4401.500       4416.400       4424.400       4442.600       4471.200       4462.800
  4438.600       4444.400       4442.000       4448.300       4457.600       4471.000
  4488.000       4497.700       4513.600       4536.200       4564.500       4587.100
  4620.400       4623.800       4568.100       4569.200       4610.000       4651.500
  4724.500       4736.100       4718.900       4733.100       4819.300       4948.500
  4790.800       4880.200       4854.300       5015.600       5024.200       4976.800
  4965.400       4946.900       4908.800       4877.600       4830.400       4804.900
  4782.500       4756.000       4738.300       4709.500       4690.300       4670.400
  4653.600       4637.900       4619.100       4609.800       4594.000       4582.000
  4560.600       4547.000       4536.200       4528.100       4526.900       4527.500
  4533.900       4534.800       4541.700
  4414.500       4435.400       4444.500       4454.600       4467.300       4469.700
  4464.300       4467.500       4456.500       4463.800       4475.800       4490.600
  4505.300       4525.700       4540.600       4572.200       4613.400       4712.800
  4727.700       4638.100       4600.700       4605.500       4619.700       4649.700
  4725.000       4790.300       4848.500       4805.200       4866.600       5022.800
  4967.100       5032.000       5028.900       5086.200       5051.000       4992.800
  4986.100       4973.600       4951.700       4924.700       4874.300       4827.700
  4806.000       4811.600       4770.800       4736.900       4716.700       4699.700
  4685.300       4661.000       4697.900       4666.900       4635.400       4599.700
  4569.000       4551.600       4537.700       4524.600       4522.900       4534.100
  4547.000       4544.200       4545.900
  4430.500       4442.400       4449.200       4451.700       4463.900       4478.200
  4487.500       4478.600       4467.500       4473.500       4487.400       4503.000
  4525.400       4550.000       4570.300       4604.300       4676.100       4733.600
  4684.100       4690.100       4673.700       4694.000       4689.200       4744.900
  4743.500       4865.500       4892.500       4980.400       5003.000       5054.700
  5150.400       5126.300       5136.100       5117.600       5057.100       5031.200
  5041.600       5010.900       4948.200       4904.000       4899.600       4866.200
  4835.300       4835.100       4831.000       4799.900       4772.400       4755.000
  4730.200       4727.100       4707.800       4678.500       4636.800       4600.800
  4596.600       4569.800       4543.200       4538.300       4536.300       4551.500
  4574.200       4552.600       4547.100
  4431.100       4432.900       4440.700       4447.200       4466.100       4480.900
  4482.300       4473.600       4471.600       4482.600       4498.100       4515.200
  4539.000       4566.000       4609.600       4631.400       4664.200       4760.200
  4850.500       4925.900       4895.700       4926.200       4790.200       4961.700
  4974.000       5007.600       5049.000       5082.000       5101.900       5149.300
  5152.300       5159.000       5146.700       5100.400       5037.200       5066.300
  5046.700       4993.800       4927.500       4847.900       4813.700       4786.300
  4764.600       4748.100       4819.800       4877.300       4880.500       4844.800
  4791.500       4778.900       4762.300       4704.500       4632.300       4589.100
  4577.400       4556.500       4553.600       4551.600       4552.200       4552.400
  4551.500       4551.900       4548.300
  4417.500       4427.900       4439.100       4442.000       4463.500       4466.300
  4459.100       4461.400       4470.000       4491.000       4509.400       4533.800
  4563.500       4590.400       4622.800       4657.600       4780.900       4946.200
  4971.400       4982.400       4986.900       4988.900       4988.900       5015.900
  5039.500       5067.400       5086.300       5095.000       5115.500       5100.300
  5083.100       5076.200       5085.000       5034.500       4973.100       5042.600
  5029.300       4977.400       4943.600       4915.800       4893.500       4861.900
  4806.800       4729.600       4742.600       4787.400       4810.400       4822.900
  4789.000       4738.200       4729.300       4670.900       4614.900       4575.500
  4550.500       4549.600       4557.800       4560.800       4566.900       4567.500
  4570.300       4562.400       4555.300
  4426.300       4428.200       4439.400       4444.900       4448.400       4458.900
  4462.700       4464.600       4476.800       4500.200       4524.900       4552.000
  4582.200       4621.100       4691.400       4837.400       4908.300       4978.400
  4986.400       4986.800       4986.100       4992.400       5007.700       5020.200
  5030.300       5068.600       5061.000       5049.200       5072.800       5026.300
  4976.400       5000.200       5001.200       4946.300       4956.800       5016.100
  4978.400       4944.300       4892.900       4850.800       4812.000       4784.600
  4752.000       4729.400       4682.600       4693.400       4721.100       4699.500
  4688.600       4650.100       4630.200       4611.700       4592.600       4567.600
  4563.000       4562.400       4569.100       4574.900       4575.500       4573.100
  4569.800       4565.300       4563.100
  4459.300       4435.400       4455.900       4473.000       4473.600       4468.800
  4469.100       4470.600       4487.700       4510.400       4539.700       4576.500
  4612.200       4652.300       4835.500       4989.600       5003.900       4995.300
  4987.100       4986.700       4983.600       4992.500       5009.200       5016.800
  5042.000       5053.200       5023.400       4974.400       5044.300       5027.400
  4884.900       4857.300       4866.900       4908.200       4992.600       4972.400
  4867.600       4848.300       4895.400       4887.800       4819.200       4767.800
  4719.100       4687.600       4668.600       4642.200       4639.600       4640.000
  4627.800       4603.800       4592.900       4582.300       4571.500       4568.300
  4569.100       4579.600       4589.300       4587.000       4580.700       4570.100
  4565.600       4566.600       4567.900
  4476.800       4454.800       4445.600       4463.000       4469.100       4467.900
  4468.400       4476.000       4489.600       4516.100       4551.400       4603.200
  4695.100       4814.100       4939.600       5040.000       5023.100       5002.100
  4983.800       4983.400       4982.800       4985.900       4999.000       5004.100
  5022.800       5029.800       4985.700       4895.200       4969.900       4958.700
  4888.800       4810.600       4897.600       4954.600       4931.800       4889.600
  4808.200       4786.400       4870.200       4898.800       4847.900       4781.800
  4750.700       4719.200       4659.000       4630.600       4616.300       4606.100
  4594.500       4586.500       4580.400       4576.400       4577.800       4581.800
  4587.200       4591.000       4591.100       4587.300       4577.400       4572.800
  4569.700       4570.800       4573.900
  4487.500       4482.500       4466.800       4462.600       4468.200       4469.800
  4469.600       4478.500       4492.200       4516.000       4554.900       4613.100
  4711.100       4888.700       5016.200       5036.100       5014.200       4995.500
  4981.100       4973.900       4976.100       4982.200       5004.800       5029.800
  5016.000       4992.100       4962.300       4888.200       4863.700       4901.000
  4910.400       4801.200       4822.600       4851.300       4816.500       4777.100
  4739.500       4747.900       4791.000       4794.600       4816.600       4778.300
  4729.100       4672.600       4654.300       4620.200       4607.900       4597.700
  4589.800       4584.900       4582.200       4585.800       4590.000       4592.000
  4592.200       4594.400       4588.700       4582.600       4581.800       4581.700
  4577.300       4577.600       4579.600
  4497.600       4498.200       4487.300       4496.000       4491.500       4491.800
  4480.000       4479.400       4490.800       4511.700       4543.700       4583.500
  4623.200       4745.000       4886.300       4992.700       5001.300       4991.200
  4981.900       4969.100       4968.700       4961.800       4988.100       5000.900
  4971.100       4936.400       4822.800       4831.900       4800.900       4796.500
  4851.000       4797.600       4749.600       4749.400       4722.800       4697.700
  4684.300       4677.600       4675.700       4680.100       4689.400       4678.900
  4654.500       4621.900       4610.700       4600.500       4594.400       4588.100
  4585.600       4585.200       4588.100       4592.400       4595.100       4598.400
  4597.000       4593.700       4588.100       4584.600       4587.900       4588.200
  4583.500       4584.700       4586.400
  4490.600       4495.200       4502.200       4511.500       4510.100       4501.300
  4488.200       4482.700       4487.600       4504.200       4528.200       4555.200
  4581.300       4614.600       4657.500       4735.500       4879.400       4896.900
  4942.700       4955.100       4926.800       4854.800       4880.100       4877.000
  4820.100       4795.500       4749.800       4689.200       4694.900       4733.900
  4732.500       4744.900       4717.100       4690.700       4680.700       4668.500
  4656.500       4648.800       4637.400       4633.900       4630.400       4632.400
  4643.800       4617.500       4594.300       4585.900       4583.500       4586.300
  4586.100       4590.200       4593.200       4606.600       4606.200       4603.400
  4599.900       4596.400       4589.000       4589.200       4593.900       4593.500
  4591.000       4597.100       4600.000
  4500.400       4523.800       4527.800       4524.100       4511.400       4498.600
  4486.400       4482.600       4483.000       4490.300       4507.900       4529.000
  4548.000       4574.500       4601.900       4636.500       4671.300       4768.900
  4767.500       4739.400       4731.200       4741.000       4718.300       4742.700
  4754.700       4671.400       4651.700       4636.700       4664.500       4650.000
  4677.000       4694.400       4676.500       4665.700       4666.000       4666.500
  4658.300       4637.200       4625.200       4612.800       4610.300       4604.500
  4602.000       4595.500       4590.000       4585.600       4585.600       4590.600
  4596.800       4601.200       4604.500       4610.900       4610.500       4605.900
  4602.700       4601.200       4597.000       4597.300       4604.000       4609.900
  4621.100       4628.800       4617.400
  4460.600       4511.300       4511.900       4520.600       4505.000       4488.600
  4482.600       4482.600       4482.600       4482.700       4487.100       4504.200
  4525.000       4547.200       4566.200       4595.700       4651.100       4677.100
  4731.500       4689.600       4650.300       4701.300       4681.200       4686.100
  4642.700       4614.100       4599.900       4597.700       4611.800       4619.800
  4676.500       4690.000       4665.800       4657.600       4644.400       4633.800
  4632.700       4612.400       4608.400       4604.200       4598.400       4590.700
  4586.600       4584.100       4583.200       4587.100       4594.700       4609.600
  4614.300       4608.800       4609.400       4612.900       4613.300       4609.800
  4607.600       4608.800       4610.800       4609.900       4618.200       4641.600
  4648.100       4643.700       4636.400
  4453.400       4460.800       4499.600       4510.800       4495.200       4483.200
  4482.600       4482.600       4482.600       4482.600       4482.600       4490.000
  4509.300       4525.800       4539.900       4557.000       4581.800       4600.700
  4610.100       4614.500       4605.200       4640.900       4662.600       4642.300
  4605.700       4584.900       4572.100       4569.500       4577.300       4598.200
  4621.300       4621.100       4619.500       4622.300       4620.200       4613.100
  4600.100       4599.500       4601.800       4602.000       4596.800       4592.200
  4587.900       4585.800       4588.800       4596.300       4608.200       4625.600
  4621.400       4618.200       4618.100       4618.400       4619.400       4619.400
  4620.100       4624.700       4638.700       4645.200       4627.300       4640.700
  4647.900       4645.900       4645.600
  4454.200       4460.200       4460.000       4458.600       4468.400       4482.700
  4482.600       4482.600       4482.600       4482.600       4482.600       4483.700
  4495.400       4503.700       4512.200       4527.900       4539.900       4555.300
  4564.000       4566.800       4569.700       4583.000       4598.600       4612.400
  4598.000       4566.600       4554.400       4550.400       4547.300       4547.200
  4557.200       4565.500       4566.800       4568.500       4572.300       4581.200
  4597.800       4609.000       4607.500       4606.200       4602.000       4599.100
  4599.100       4602.800       4609.000       4613.700       4625.400       4627.400
  4624.300       4627.900       4625.800       4623.400       4625.800       4632.700
  4644.500       4652.500       4655.200       4652.700       4637.900       4635.200
  4649.500       4650.000       4650.400
  4453.000       4460.000       4460.700       4462.800       4467.600       4485.000
  4483.200       4482.600       4482.600       4482.600       4482.600       4482.600
  4486.500       4489.800       4495.400       4503.500       4507.800       4522.000
  4532.700       4539.500       4541.300       4544.400       4547.200       4555.300
  4549.500       4540.400       4538.200       4535.600       4528.700       4525.500
  4527.600       4531.500       4535.200       4541.800       4554.900       4589.800
  4623.700       4632.200       4620.100       4617.100       4608.200       4610.800
  4617.800       4620.100       4622.300       4627.600       4634.000       4627.800
  4632.100       4636.500       4634.700       4632.900       4646.700       4658.700
  4663.800       4664.600       4661.800       4653.300       4639.600       4645.800
  4650.200       4649.500       4652.000
  4455.800       4460.900       4465.500       4471.300       4495.600       4507.300
  4500.600       4484.300       4482.600       4482.600       4482.600       4483.600
  4485.200       4486.600       4488.300       4491.600       4494.600       4499.300
  4507.300       4518.200       4519.000       4514.600       4515.500       4519.200
  4522.800       4522.300       4522.500       4520.600       4516.400       4521.500
  4525.600       4520.900       4528.000       4538.500       4552.700       4588.800
  4630.000       4634.600       4628.100       4631.400       4624.400       4634.400
  4655.800       4659.600       4656.600       4650.100       4632.700       4633.000
  4644.500       4649.800       4656.800       4653.400       4666.400       4671.400
  4672.200       4670.900       4667.200       4656.000       4646.400       4649.300
  4653.800       4659.000       4664.400
  4453.100       4457.900       4460.400       4465.700       4470.700       4479.100
  4484.900       4485.500       4482.600       4482.600       4483.000       4484.400
  4485.400       4486.300       4487.100       4489.200       4493.300       4496.000
  4497.500       4503.100       4503.700       4503.200       4504.200       4506.200
  4509.900       4513.400       4514.200       4512.800       4509.400       4510.600
  4523.700       4523.000       4530.500       4545.000       4568.400       4605.500
  4618.700       4627.600       4649.800       4655.500       4653.600       4653.700
  4653.300       4657.200       4656.300       4645.200       4638.700       4643.100
  4654.600       4667.200       4673.800       4670.800       4677.600       4680.300
  4678.600       4675.300       4671.300       4660.400       4650.800       4659.000
  4665.400       4668.100       4666.600
  4456.600       4457.600       4460.000       4466.400       4475.300       4478.800
  4478.400       4480.300       4482.600       4482.600       4483.600       4486.300
  4487.100       4487.400       4488.600       4492.100       4496.600       4498.900
  4499.500       4500.600       4502.600       4503.600       4504.600       4506.400
  4507.400       4509.900       4512.000       4511.200       4508.400       4507.300
  4517.800       4523.300       4535.900       4552.300       4564.900       4593.500
  4621.700       4656.400       4684.700       4690.800       4687.500       4682.100
  4666.500       4664.200       4659.800       4646.700       4643.000       4652.500
  4665.800       4678.300       4685.700       4686.400       4686.400       4686.700
  4682.400       4680.900       4676.900       4668.100       4665.400       4666.000
  4667.900       4671.400       4669.900
  4455.900       4460.000       4460.000       4465.000       4470.400       4477.200
  4478.400       4480.600       4486.100       4482.800       4482.800       4486.300
  4487.900       4490.000       4493.200       4496.200       4499.100       4502.200
  4503.300       4504.400       4506.400       4508.300       4507.600       4507.600
  4509.100       4511.000       4512.700       4509.600       4511.200       4515.100
  4526.000       4531.600       4531.500       4553.700       4571.600       4602.100
  4651.800       4692.000       4702.100       4707.700       4704.700       4698.300
  4674.700       4665.600       4663.500       4650.200       4650.300       4664.100
  4683.600       4691.300       4692.600       4691.000       4687.000       4684.500
  4685.900       4687.300       4687.200       4673.200       4667.300       4668.500
  4668.500       4674.800       4673.100
  4460.000       4460.000       4460.000       4463.400       4470.000       4477.000
  4476.400       4479.000       4487.400       4487.000       4487.000       4487.700
  4491.700       4494.500       4498.700       4501.700       4504.400       4506.700
  4507.400       4507.700       4508.700       4511.800       4514.400       4512.800
  4511.800       4512.600       4512.500       4509.500       4509.900       4521.400
  4542.000       4540.600       4556.500       4555.100       4593.800       4640.500
  4693.500       4705.500       4708.100       4721.000       4715.000       4690.500
  4667.300       4666.900       4664.900       4652.800       4654.400       4669.300
  4686.400       4693.300       4690.800       4689.400       4687.900       4688.200
  4690.400       4690.700       4690.000       4680.000       4669.800       4675.300
  4673.100       4677.900       4675.700
  4462.000       4461.900       4461.000       4463.000       4465.000       4476.400
  4479.000       4481.300       4485.800       4481.000       4485.500       4489.900
  4495.700       4496.900       4501.000       4508.000       4508.700       4509.500
  4511.500       4512.500       4513.500       4514.300       4515.700       4516.000
  4515.500       4515.500       4515.800       4515.500       4515.500       4528.100
  4532.700       4559.300       4557.900       4580.700       4613.400       4658.300
  4697.000       4707.800       4708.800       4711.400       4708.100       4679.400
  4667.600       4667.600       4662.200       4657.200       4662.700       4665.500
  4679.800       4691.700       4692.300       4691.100       4688.700       4692.000
  4693.400       4692.100       4691.100       4684.200       4678.200       4685.500
  4680.700       4680.200       4679.000
  4490.100       4467.900       4465.800       4465.100       4465.000       4474.900
  4480.700       4482.400       4483.000       4482.000       4490.700       4493.700
  4496.900       4501.200       4505.900       4508.200       4513.200       4515.100
  4516.100       4517.800       4518.700       4518.300       4517.800       4519.600
  4519.300       4518.900       4519.500       4522.100       4524.400       4530.400
  4562.000       4560.600       4574.300       4604.200       4645.500       4690.300
  4707.600       4707.600       4707.500       4704.600       4700.700       4683.000
  4670.600       4666.700       4661.000       4663.300       4671.300       4664.800
  4674.200       4692.600       4694.700       4692.300       4692.900       4700.000
  4697.900       4697.100       4694.000       4687.200       4686.100       4689.400
  4685.300       4683.200       4672.900
  4483.600       4470.700       4470.300       4469.100       4468.000       4470.000
  4477.800       4484.100       4483.000       4492.800       4494.700       4497.300
  4500.000       4504.100       4507.600       4510.600       4514.600       4517.200
  4520.200       4524.500       4524.100       4524.200       4523.800       4524.700
  4527.300       4523.900       4525.100       4529.000       4531.100       4564.800
  4563.400       4585.100       4604.000       4645.400       4676.300       4693.500
  4706.100       4707.300       4707.500       4707.900       4708.800       4712.000
  4688.100       4663.900       4663.500       4672.800       4685.400       4669.300
  4672.200       4691.100       4690.600       4697.500       4704.600       4706.500
  4704.200       4700.500       4697.100       4689.300       4690.600       4693.800
  4693.600       4690.700       4675.100
  4488.900       4474.700       4473.400       4476.500       4469.700       4472.000
  4474.000       4476.000       4484.000       4485.000       4497.300       4499.800
  4503.400       4506.700       4510.000       4515.000       4521.400       4519.300
  4525.600       4528.400       4530.000       4530.200       4530.500       4532.100
  4531.500       4529.600       4531.000       4538.200       4567.600       4566.200
  4577.200       4609.600       4636.400       4669.400       4695.000       4706.900
  4709.600       4708.400       4709.100       4711.200       4708.900       4708.700
  4685.700       4664.300       4671.300       4689.300       4694.000       4673.600
  4672.300       4694.900       4703.300       4706.700       4709.000       4710.300
  4707.100       4706.300       4702.000       4691.400       4690.000       4700.200
  4704.800       4694.100       4689.900
  4494.600       4482.700       4476.400       4478.800       4478.100       4476.700
  4479.100       4480.000       4483.000       4485.000       4498.900       4502.200
  4505.800       4508.800       4512.800       4517.000       4523.500       4526.500
  4530.700       4535.200       4535.900       4535.000       4535.700       4539.100
  4538.200       4536.600       4571.800       4570.400       4569.000       4572.900
  4591.200       4613.500       4641.700       4669.400       4695.100       4712.100
  4712.600       4711.500       4709.500       4714.300       4709.600       4691.000
  4680.400       4668.100       4679.900       4700.800       4696.000       4677.600
  4678.600       4702.000       4710.400       4711.400       4712.600       4713.600
  4712.000       4709.600       4704.700       4699.000       4691.500       4708.400
  4707.400       4704.400       4706.700
  4499.400       4488.600       4478.100       4478.800       4481.700       4481.400
  4479.900       4485.500       4488.700       4488.000       4493.000       4495.800
  4508.300       4511.300       4514.500       4518.100       4525.600       4529.900
  4533.300       4536.400       4538.200       4540.100       4541.100       4542.300
  4543.700       4574.600       4573.200       4561.400       4581.500       4614.000
  4634.000       4635.000       4653.500       4668.100       4700.300       4713.200
  4715.500       4716.800       4714.600       4717.700       4709.200       4688.700
  4681.900       4674.500       4685.000       4692.400       4688.800       4685.800
  4686.900       4708.200       4715.000       4716.600       4717.300       4717.600
  4715.200       4708.700       4709.200       4706.600       4698.300       4707.800
  4716.400       4712.000       4719.400