# NPF6 input file, prepared by MF5to6 on 7/11/2022 at 14:24:43.

BEGIN Options
  PERCHED
  SAVE_FLOWS  Calibration_mf6_Calibration.cbb
END Options

BEGIN GRIDDATA
  Icelltype LAYERED
    CONSTANT  1
  K  LAYERED
    INTERNAL  FACTOR  1.0  IPRN   12
   8.150000       8.150000       8.150000       8.150000       8.150000       8.150000       8.150000       8.150000       8.150000       8.150000    
   8.150000       8.150000       8.150000       8.150000       8.150000       8.150000       8.150000       8.150000       8.150000       8.150000    
   8.150000       8.150000      0.5360000E-01  0.5360000E-01  0.5360000E-01  0.5360000E-01  0.5360000E-01  0.5360000E-01  0.5360000E-01  0.5360000E-01
  0.5360000E-01  0.5360000E-01  0.5360000E-01  0.5360000E-01  0.5360000E-01  0.5360000E-01  0.5360000E-01  0.5360000E-01  0.5360000E-01  0.5360000E-01
  0.5360000E-01  0.5360000E-01  0.5360000E-01  0.5360000E-01  0.5360000E-01  0.5360000E-01  0.5360000E-01  0.5360000E-01  0.5360000E-01  0.5360000E-01
  0.5360000E-01  0.5360000E-01   8.150000       8.150000       8.150000       8.150000       8.150000       8.150000       8.150000       8.150000    
   8.150000       8.150000       8.150000    
   8.150000       8.150000       8.150000       8.150000       8.150000       8.150000       8.150000       8.150000       8.150000       8.150000    
   8.150000       8.150000       8.150000       8.150000       8.150000       8.150000       8.150000       8.150000       8.150000       8.150000    
   8.150000      0.5360000E-01  0.5360000E-01  0.5360000E-01  0.5360000E-01  0.5360000E-01  0.5360000E-01  0.5360000E-01  0.5360000E-01  0.5360000E-01
  0.5360000E-01  0.5360000E-01  0.5360000E-01  0.5360000E-01  0.5360000E-01  0.5360000E-01  0.5360000E-01  0.5360000E-01  0.5360000E-01  0.5360000E-01
  0.5360000E-01  0.5360000E-01  0.5360000E-01  0.5360000E-01  0.5360000E-01  0.5360000E-01  0.5360000E-01  0.5360000E-01  0.5360000E-01  0.5360000E-01
  0.5360000E-01  0.5360000E-01   8.150000       8.150000       8.150000       8.150000       8.150000       8.150000       8.150000       8.150000    
   8.150000       8.150000       8.150000    
   8.150000       8.150000       8.150000       8.150000       8.150000       8.150000       8.150000       8.150000       8.150000       8.150000    
   8.150000       8.150000       8.150000       8.150000       8.150000       8.150000       8.150000       8.150000       8.150000       8.150000    
   8.150000      0.5360000E-01  0.5360000E-01  0.5360000E-01  0.5360000E-01  0.5360000E-01  0.5360000E-01  0.5360000E-01  0.5360000E-01  0.5360000E-01
  0.5360000E-01  0.5360000E-01  0.5360000E-01  0.5360000E-01  0.5360000E-01  0.5360000E-01  0.5360000E-01  0.5360000E-01  0.5360000E-01  0.5360000E-01
  0.5360000E-01  0.5360000E-01  0.5360000E-01  0.5360000E-01  0.5360000E-01  0.5360000E-01  0.5360000E-01  0.5360000E-01  0.5360000E-01  0.5360000E-01
  0.5360000E-01  0.5360000E-01   8.150000       8.150000       8.150000       8.150000       8.150000       8.150000       8.150000       8.150000    
   8.150000       8.150000       8.150000    
   8.150000       8.150000       8.150000       8.150000       8.150000       8.150000       8.150000       8.150000       8.150000       8.150000    
   8.150000       8.150000       8.150000       8.150000       8.150000       8.150000       8.150000      0.5360000E-01  0.5360000E-01  0.5360000E-01
  0.5360000E-01  0.5360000E-01  0.5360000E-01  0.5360000E-01  0.5360000E-01  0.5360000E-01  0.5360000E-01  0.5360000E-01  0.5360000E-01  0.5360000E-01
  0.5360000E-01  0.5360000E-01  0.5360000E-01  0.5360000E-01  0.5360000E-01  0.5360000E-01  0.5360000E-01  0.5360000E-01  0.5360000E-01  0.5360000E-01
  0.5360000E-01  0.5360000E-01  0.5360000E-01  0.5360000E-01  0.5360000E-01  0.5360000E-01  0.5360000E-01  0.5360000E-01  0.5360000E-01  0.5360000E-01
  0.5360000E-01  0.5360000E-01   8.150000       8.150000       8.150000       8.150000       8.150000       8.150000       8.150000       8.150000    
   8.150000       8.150000       8.150000    
   8.150000       8.150000       8.150000       8.150000       8.150000       8.150000       8.150000       8.150000       8.150000       8.150000    
   8.150000       8.150000       8.150000       8.150000       8.150000       8.150000       8.150000      0.5360000E-01  0.5360000E-01  0.5360000E-01
  0.5360000E-01  0.5360000E-01  0.5360000E-01  0.5360000E-01  0.5360000E-01  0.5360000E-01  0.5360000E-01  0.5360000E-01  0.5360000E-01  0.5360000E-01
  0.5360000E-01  0.5360000E-01  0.5360000E-01  0.5360000E-01  0.5360000E-01  0.5360000E-01  0.5360000E-01  0.5360000E-01  0.5360000E-01  0.5360000E-01
  0.5360000E-01  0.5360000E-01  0.5360000E-01  0.5360000E-01  0.5360000E-01  0.5360000E-01  0.5360000E-01  0.5360000E-01  0.5360000E-01  0.5360000E-01
  0.5360000E-01  0.5360000E-01   8.150000       8.150000       8.150000       8.150000       8.150000       8.150000       8.150000       8.150000    
   8.150000       8.150000       8.150000    
   8.150000       8.150000       8.150000       8.150000       8.150000       8.150000       8.150000       8.150000       8.150000       8.150000    
   8.150000       8.150000       8.150000       8.150000       8.150000      0.5360000E-01  0.5360000E-01  0.5360000E-01  0.5360000E-01  0.5360000E-01
  0.5360000E-01  0.5360000E-01  0.5360000E-01  0.5360000E-01  0.5360000E-01  0.5360000E-01  0.5360000E-01  0.5360000E-01  0.5360000E-01  0.5360000E-01
  0.5360000E-01  0.5360000E-01  0.5360000E-01  0.5360000E-01  0.5360000E-01  0.5360000E-01  0.5360000E-01  0.5360000E-01  0.5360000E-01  0.5360000E-01
  0.5360000E-01  0.5360000E-01  0.5360000E-01  0.5360000E-01  0.5360000E-01  0.5360000E-01  0.5360000E-01  0.5360000E-01  0.5360000E-01  0.5360000E-01
  0.5360000E-01  0.5360000E-01   8.150000       8.150000       8.150000       8.150000       8.150000       8.150000       8.150000       8.150000    
   8.150000       8.150000       8.150000    
   8.150000       8.150000       8.150000       8.150000       8.150000       8.150000       8.150000       8.150000       8.150000       8.150000    
   8.150000       8.150000       8.150000      0.5360000E-01  0.5360000E-01  0.5360000E-01  0.5360000E-01  0.5360000E-01  0.5360000E-01  0.5360000E-01
  0.5360000E-01  0.5360000E-01  0.5360000E-01  0.5360000E-01  0.5360000E-01  0.5360000E-01  0.5360000E-01  0.5360000E-01  0.5360000E-01  0.5360000E-01
  0.5360000E-01  0.5360000E-01  0.5360000E-01  0.5360000E-01  0.5360000E-01  0.5360000E-01  0.5360000E-01  0.5360000E-01  0.5360000E-01  0.5360000E-01
  0.5360000E-01  0.5360000E-01  0.5360000E-01  0.5360000E-01  0.5360000E-01  0.5360000E-01  0.5360000E-01  0.5360000E-01  0.5360000E-01  0.5360000E-01
  0.5360000E-01  0.5360000E-01  0.5360000E-01   8.150000       8.150000       8.150000       8.150000       8.150000       8.150000       8.150000    
   8.150000       8.150000       8.150000    
   8.150000       8.150000       8.150000       8.150000       8.150000       8.150000       8.150000       8.150000       8.150000       8.150000    
   8.150000       8.150000       8.150000      0.5360000E-01  0.5360000E-01  0.5360000E-01  0.5360000E-01  0.5360000E-01  0.5360000E-01  0.5360000E-01
  0.5360000E-01  0.5360000E-01  0.5360000E-01  0.5360000E-01  0.5360000E-01  0.5360000E-01  0.5360000E-01  0.5360000E-01  0.5360000E-01  0.5360000E-01
  0.5360000E-01  0.5360000E-01  0.5360000E-01  0.5360000E-01  0.5360000E-01  0.5360000E-01  0.5360000E-01  0.5360000E-01  0.5360000E-01  0.5360000E-01
  0.5360000E-01  0.5360000E-01  0.5360000E-01  0.5360000E-01  0.5360000E-01  0.5360000E-01  0.5360000E-01  0.5360000E-01  0.5360000E-01  0.5360000E-01
  0.5360000E-01  0.5360000E-01  0.5360000E-01   8.150000       8.150000       8.150000       8.150000       8.150000       8.150000       8.150000    
   8.150000       8.150000       8.150000    
   8.150000       8.150000       8.150000       8.150000       8.150000       8.150000       8.150000       8.150000       8.150000       8.150000    
   8.150000       8.150000       8.150000      0.5360000E-01  0.5360000E-01  0.5360000E-01  0.5360000E-01  0.5360000E-01  0.5360000E-01  0.5360000E-01
  0.5360000E-01  0.5360000E-01  0.5360000E-01  0.5360000E-01  0.5360000E-01  0.5360000E-01  0.5360000E-01  0.5360000E-01  0.5360000E-01  0.5360000E-01
  0.5360000E-01  0.5360000E-01  0.5360000E-01  0.5360000E-01  0.5360000E-01  0.5360000E-01  0.5360000E-01  0.5360000E-01  0.5360000E-01  0.5360000E-01
  0.5360000E-01  0.5360000E-01  0.5360000E-01  0.5360000E-01  0.5360000E-01  0.5360000E-01  0.5360000E-01  0.5360000E-01  0.5360000E-01  0.5360000E-01
  0.5360000E-01  0.5360000E-01  0.5360000E-01   8.150000       8.150000       8.150000       8.150000       8.150000       8.150000       8.150000    
   8.150000       8.150000       8.150000    
   8.150000       8.150000       8.150000       8.150000       8.150000       8.150000       8.150000       8.150000       8.150000       8.150000    
   8.150000       8.150000       8.150000      0.5360000E-01  0.5360000E-01  0.5360000E-01  0.5360000E-01  0.5360000E-01  0.5360000E-01  0.5360000E-01
  0.5360000E-01  0.5360000E-01  0.5360000E-01  0.5360000E-01  0.5360000E-01  0.5360000E-01  0.5360000E-01  0.5360000E-01  0.5360000E-01  0.5360000E-01
  0.5360000E-01  0.5360000E-01  0.5360000E-01  0.5360000E-01  0.5360000E-01  0.5360000E-01  0.5360000E-01  0.5360000E-01  0.5360000E-01  0.5360000E-01
  0.5360000E-01  0.5360000E-01  0.5360000E-01  0.5360000E-01  0.5360000E-01  0.5360000E-01  0.5360000E-01  0.5360000E-01  0.5360000E-01  0.5360000E-01
  0.5360000E-01  0.5360000E-01  0.5360000E-01   8.150000       8.150000       8.150000       8.150000       8.150000       8.150000       8.150000    
   8.150000       8.150000       8.150000    
  0.3900000      0.3900000      0.3900000      0.3900000      0.3900000      0.3900000      0.3900000      0.3900000      0.3900000       8.150000    
   8.150000      0.5360000E-01  0.5360000E-01  0.5360000E-01  0.5360000E-01  0.5360000E-01  0.5360000E-01  0.5360000E-01  0.5360000E-01  0.5360000E-01
  0.5360000E-01  0.5360000E-01  0.5360000E-01  0.5360000E-01  0.5360000E-01  0.5360000E-01  0.5360000E-01  0.5360000E-01  0.5360000E-01  0.5360000E-01
  0.5360000E-01  0.5360000E-01  0.5360000E-01  0.5360000E-01  0.5360000E-01  0.5360000E-01  0.5360000E-01  0.5360000E-01  0.5360000E-01  0.5360000E-01
  0.5360000E-01  0.5360000E-01  0.5360000E-01  0.5360000E-01  0.5360000E-01  0.5360000E-01  0.5360000E-01  0.5360000E-01  0.5360000E-01  0.5360000E-01
  0.5360000E-01  0.5360000E-01   8.150000       8.150000       8.150000       8.150000       8.150000       8.150000       8.150000       8.150000    
   8.150000       8.150000       8.150000    
  0.3900000      0.3900000      0.3900000      0.3900000      0.3900000      0.3900000      0.3900000      0.3900000      0.3900000       8.150000    
   8.150000      0.5360000E-01  0.5360000E-01  0.5360000E-01  0.5360000E-01  0.5360000E-01  0.5360000E-01  0.5360000E-01  0.5360000E-01  0.5360000E-01
  0.5360000E-01  0.5360000E-01  0.5360000E-01  0.5360000E-01  0.5360000E-01  0.5360000E-01  0.5360000E-01  0.5360000E-01  0.5360000E-01  0.5360000E-01
  0.5360000E-01  0.5360000E-01  0.5360000E-01  0.5360000E-01  0.5360000E-01  0.5360000E-01  0.5360000E-01  0.5360000E-01  0.5360000E-01  0.5360000E-01
  0.5360000E-01  0.5360000E-01  0.5360000E-01  0.5360000E-01  0.5360000E-01  0.5360000E-01  0.5360000E-01  0.5360000E-01  0.5360000E-01  0.5360000E-01
   8.150000       8.150000       8.150000       8.150000       8.150000       8.150000       8.150000       8.150000       8.150000       8.150000    
   8.150000       8.150000       8.150000    
  0.3900000      0.3900000      0.3900000      0.3900000      0.3900000      0.3900000      0.3900000      0.3900000      0.3900000       8.150000    
   8.150000      0.5360000E-01  0.5360000E-01  0.5360000E-01  0.5360000E-01  0.5360000E-01  0.5360000E-01  0.5360000E-01  0.5360000E-01  0.5360000E-01
  0.5360000E-01  0.5360000E-01  0.5360000E-01  0.5360000E-01  0.5360000E-01  0.5360000E-01  0.5360000E-01  0.5360000E-01  0.5360000E-01  0.5360000E-01
  0.5360000E-01  0.5360000E-01  0.5360000E-01  0.5360000E-01  0.5360000E-01  0.5360000E-01  0.5360000E-01  0.5360000E-01  0.5360000E-01  0.5360000E-01
  0.5360000E-01  0.5360000E-01  0.5360000E-01  0.5360000E-01  0.5360000E-01   8.150000       8.150000       8.150000       8.150000       8.150000    
   8.150000       8.150000       8.150000       8.150000       8.150000       8.150000       8.150000       8.150000       8.150000       8.150000    
   8.150000       8.150000       8.150000    
  0.3900000      0.3900000      0.3900000      0.3900000      0.3900000      0.3900000      0.3900000      0.3900000      0.3900000       8.150000    
   8.150000      0.5360000E-01  0.5360000E-01  0.5360000E-01  0.5360000E-01  0.5360000E-01  0.5360000E-01  0.5360000E-01  0.5360000E-01  0.5360000E-01
  0.5360000E-01  0.5360000E-01  0.5360000E-01  0.5360000E-01  0.5360000E-01  0.5360000E-01  0.5360000E-01  0.5360000E-01  0.5360000E-01  0.5360000E-01
  0.5360000E-01  0.5360000E-01  0.5360000E-01  0.5360000E-01  0.5360000E-01  0.5360000E-01  0.5360000E-01  0.5360000E-01  0.5360000E-01  0.5360000E-01
  0.5360000E-01  0.5360000E-01  0.5360000E-01  0.5360000E-01  0.5360000E-01   8.150000       8.150000       8.150000       8.150000       8.150000    
   8.150000       8.150000       8.150000       8.150000       8.150000       8.150000       8.150000       8.150000       8.150000       8.150000    
   8.150000       8.150000       8.150000    
  0.3900000      0.3900000      0.3900000      0.3900000      0.3900000      0.3900000      0.3900000      0.3900000      0.3900000       8.150000    
   8.150000      0.5360000E-01  0.5360000E-01  0.5360000E-01  0.5360000E-01  0.5360000E-01  0.5360000E-01  0.5360000E-01  0.5360000E-01  0.5360000E-01
  0.5360000E-01  0.5360000E-01  0.5360000E-01  0.5360000E-01  0.5360000E-01  0.5360000E-01  0.5360000E-01  0.5360000E-01  0.5360000E-01  0.5360000E-01
  0.5360000E-01  0.5360000E-01  0.5360000E-01  0.5360000E-01  0.5360000E-01  0.5360000E-01  0.5360000E-01  0.5360000E-01  0.5360000E-01  0.5360000E-01
  0.5360000E-01  0.5360000E-01  0.5360000E-01  0.5360000E-01  0.5360000E-01   8.150000       8.150000       8.150000       8.150000       8.150000    
   8.150000       8.150000       8.150000       8.150000       8.150000       8.150000       8.150000       8.150000       8.150000       8.150000    
   8.150000       8.150000       8.150000    
  0.3900000      0.3900000      0.3900000      0.3900000      0.3900000      0.3900000      0.3900000      0.3900000      0.3900000      0.3900000    
   8.150000      0.5360000E-01  0.5360000E-01  0.5360000E-01  0.5360000E-01  0.5360000E-01  0.5360000E-01  0.5360000E-01  0.5360000E-01  0.5360000E-01
  0.5360000E-01  0.5360000E-01  0.5360000E-01  0.5360000E-01  0.5360000E-01  0.5360000E-01  0.5360000E-01  0.5360000E-01  0.5360000E-01  0.5360000E-01
  0.5360000E-01  0.5360000E-01  0.5360000E-01  0.5360000E-01  0.5360000E-01  0.5360000E-01  0.5360000E-01  0.5360000E-01   8.150000       8.150000    
   8.150000      0.5360000E-01  0.5360000E-01   8.150000       8.150000       8.150000       8.150000       8.150000       8.150000       8.150000    
   8.150000       3.980000       3.980000       3.980000       3.980000       8.150000       8.150000       8.150000       8.150000       8.150000    
   8.150000       8.150000       8.150000    
  0.3900000      0.3900000      0.3900000      0.3900000      0.3900000      0.3900000      0.3900000      0.3900000      0.3900000      0.3900000    
   8.150000       8.150000       8.150000       8.150000       8.150000      0.5360000E-01  0.5360000E-01  0.5360000E-01  0.5360000E-01  0.5360000E-01
  0.5360000E-01  0.5360000E-01  0.5360000E-01  0.5360000E-01  0.5360000E-01  0.5360000E-01  0.5360000E-01  0.5360000E-01  0.5360000E-01  0.5360000E-01
  0.5360000E-01  0.5360000E-01  0.5360000E-01  0.5360000E-01  0.5360000E-01  0.5360000E-01  0.5360000E-01  0.5360000E-01   8.150000       8.150000    
   8.150000       8.150000       8.150000       8.150000       8.150000       8.150000       8.150000       8.150000       8.150000       8.150000    
   3.980000       3.980000       3.980000       3.980000       3.980000       3.980000       3.980000       3.980000       3.980000       3.980000    
   3.980000       3.980000       3.980000    
  0.3900000      0.3900000      0.3900000      0.3900000      0.3900000      0.3900000      0.3900000      0.3900000      0.3900000      0.3900000    
  0.3900000       8.150000       8.150000       8.150000       8.150000      0.5360000E-01  0.5360000E-01  0.5360000E-01  0.5360000E-01  0.5360000E-01
  0.5360000E-01  0.5360000E-01  0.5360000E-01  0.5360000E-01  0.5360000E-01  0.5360000E-01  0.5360000E-01  0.5360000E-01  0.5360000E-01  0.5360000E-01
  0.5360000E-01  0.5360000E-01  0.5360000E-01  0.5360000E-01  0.5360000E-01  0.5360000E-01   8.150000       8.150000       8.150000       8.150000    
   8.150000       8.150000       8.150000       8.150000       8.150000       8.150000       8.150000       8.150000       8.150000       8.150000    
   3.980000       3.980000       3.980000       3.980000       3.980000       3.980000       3.980000       3.980000       3.980000       3.980000    
   3.980000       3.980000       3.980000    
  0.3900000      0.3900000      0.3900000      0.3900000      0.3900000       131.4000       131.4000       131.4000       131.4000       131.4000    
   131.4000       8.150000       8.150000       8.150000       8.150000       8.150000      0.5360000E-01  0.5360000E-01  0.5360000E-01  0.5360000E-01
  0.5360000E-01  0.5360000E-01  0.5360000E-01  0.5360000E-01  0.5360000E-01  0.5360000E-01  0.5360000E-01  0.5360000E-01  0.5360000E-01  0.5360000E-01
  0.5360000E-01  0.5360000E-01  0.5360000E-01  0.5360000E-01  0.5360000E-01  0.5360000E-01   8.150000       8.150000       8.150000       8.150000    
   8.150000       8.150000       8.150000       8.150000       8.150000       8.150000       8.150000       8.150000       8.150000       3.980000    
   3.980000       3.980000       3.980000       3.980000       3.980000       3.980000       3.980000       3.980000       3.980000       3.980000    
   3.980000       3.980000       3.980000    
  0.3900000      0.3900000      0.3900000      0.3900000      0.3900000      0.3900000       131.4000       131.4000       131.4000       131.4000    
   131.4000       131.4000       131.4000       8.150000       8.150000       8.150000       8.150000       131.4000       131.4000       131.4000    
   131.4000       131.4000       131.4000       131.4000       131.4000       131.4000       131.4000       131.4000       131.4000       131.4000    
   131.4000       131.4000       131.4000       8.150000       8.150000       8.150000       8.150000       8.150000       8.150000       8.150000    
   8.150000       8.150000       8.150000       8.150000       8.150000       8.150000       8.150000       3.980000       3.980000       3.980000    
   3.980000       3.980000       3.980000       3.980000       3.980000       3.980000       3.980000       3.980000       3.980000       3.980000    
   3.980000       3.980000       3.980000    
   8.150000       8.150000       8.150000       8.150000       8.150000      0.3900000       131.4000       131.4000       131.4000       131.4000    
   131.4000       131.4000       89.14000       89.14000       131.4000       131.4000       131.4000       131.4000       131.4000       131.4000    
   131.4000       131.4000       131.4000       131.4000       131.4000       131.4000       131.4000       131.4000       131.4000       131.4000    
   131.4000       131.4000       131.4000       8.150000       8.150000       8.150000       8.150000       8.150000       8.150000       8.150000    
   8.150000       8.150000       8.150000       8.150000       8.150000       8.150000       3.980000       3.980000       3.980000       3.980000    
   3.980000       3.980000       3.980000       3.980000       3.980000       3.980000       3.980000       3.980000       3.980000       3.980000    
   3.980000       3.980000       3.980000    
   8.150000       8.150000       8.150000       8.150000       8.150000      0.3900000      0.3900000       131.4000       131.4000       131.4000    
   131.4000       131.4000       251.7700       251.7700       251.7700       251.7700       131.4000       131.4000       131.4000       131.4000    
   131.4000       131.4000       131.4000       131.4000       131.4000       131.4000       131.4000       131.4000       131.4000       131.4000    
   131.4000       131.4000       131.4000       131.4000       8.150000       8.150000       8.150000       3.980000       3.980000       3.980000    
   3.980000       3.980000       3.980000       3.980000       3.980000       3.980000       3.980000       3.980000       3.980000       3.980000    
   3.980000       3.980000       3.980000       3.980000       3.980000       3.980000       3.980000       3.980000       3.980000       3.980000    
   3.980000       3.980000       3.980000    
   8.150000       89.14000       89.14000       89.14000       89.14000      0.3900000      0.3900000      0.3900000       131.4000       131.4000    
   131.4000       89.14000       251.7700       251.7700       251.7700       251.7700       89.14000       89.14000       89.14000       89.14000    
   89.14000       89.14000       89.14000       89.14000       89.14000       89.14000       89.14000       89.14000       89.14000       89.14000    
   89.14000       131.4000       131.4000       131.4000       8.150000       8.150000       8.150000       3.980000       3.980000       3.980000    
   3.980000       3.980000       3.980000       3.980000       3.980000       3.980000       3.980000       3.980000       3.980000       3.980000    
   3.980000       3.980000       3.980000       3.980000       3.980000       3.980000       3.980000       3.980000       3.980000       3.980000    
   3.980000       3.980000       3.980000    
   8.150000       89.14000       89.14000       89.14000       89.14000       89.14000       89.14000      0.3900000      0.3900000       89.14000    
   89.14000       251.7700       251.7700       251.7700       251.7700       251.7700       251.7700       251.7700       251.7700       251.7700    
   251.7700       251.7700       251.7700       251.7700       251.7700       251.7700       251.7700       251.7700       251.7700       251.7700    
   251.7700       89.14000       131.4000       8.150000       8.150000       8.150000       3.980000       3.980000       3.980000       3.980000    
   3.980000       3.980000       3.980000       3.980000       3.980000       3.980000       3.980000       3.980000       3.980000       3.980000    
   3.980000       3.980000       3.980000       3.980000       3.980000       3.980000       3.980000       3.980000       3.980000       3.980000    
   3.980000       3.980000       3.980000    
   8.150000       89.14000       89.14000       89.14000       251.7700       251.7700       251.7700       251.7700       251.7700       251.7700    
   251.7700       251.7700       251.7700       251.7700       251.7700       251.7700       251.7700       251.7700       251.7700       251.7700    
   251.7700       251.7700       251.7700       251.7700       251.7700       251.7700       251.7700       251.7700       251.7700       251.7700    
   251.7700       89.14000       131.4000       8.150000       8.150000       3.980000       3.980000       3.980000       3.980000       3.980000    
   3.980000       3.980000       3.980000       3.980000       3.980000       3.980000       3.980000       3.980000       3.980000       3.980000    
   3.980000       3.980000       3.980000       3.980000       3.980000       3.980000       3.980000       3.980000       3.980000       3.980000    
   3.980000       3.980000       3.980000    
   8.150000       89.14000       89.14000       89.14000       251.7700       251.7700       251.7700       251.7700       251.7700       251.7700    
   251.7700       251.7700       251.7700       251.7700       251.7700       251.7700       251.7700       251.7700       251.7700       251.7700    
   251.7700       251.7700       251.7700       251.7700       251.7700       251.7700       251.7700       251.7700       251.7700       251.7700    
   251.7700       89.14000       131.4000       8.150000       8.150000       3.980000       3.980000       3.980000       3.980000       3.980000    
   3.980000       3.980000       3.980000       3.980000       3.980000       3.980000       3.980000       3.980000       3.980000       3.980000    
   3.980000       3.980000       3.980000       3.980000       3.980000       3.980000       3.980000       3.980000       3.980000       3.980000    
   3.980000       3.980000       3.980000    
   8.150000       251.7700       251.7700       251.7700       89.14000       251.7700       251.7700       251.7700       251.7700       251.7700    
   251.7700       251.7700       251.7700       251.7700       251.7700       251.7700       251.7700       251.7700       251.7700       251.7700    
   251.7700       251.7700       251.7700       251.7700       251.7700       251.7700       251.7700       251.7700       251.7700       89.14000    
   89.14000       131.4000       8.150000       8.150000       8.150000       3.980000       3.980000       3.980000       3.980000       3.980000    
   3.980000       3.980000       3.980000       3.980000       3.980000       3.980000       3.980000       3.980000       3.980000       3.980000    
   3.980000       3.980000       3.980000       3.980000       3.980000       3.980000       3.980000       3.980000       3.980000       3.980000    
   3.980000       3.980000       3.980000    
   8.150000       251.7700       251.7700       251.7700       89.14000       89.14000       251.7700       251.7700       251.7700       251.7700    
   251.7700       251.7700       251.7700       251.7700       251.7700       251.7700       251.7700       251.7700       251.7700       251.7700    
   251.7700       251.7700       251.7700       251.7700       251.7700       251.7700       251.7700       251.7700       251.7700       89.14000    
   89.14000       131.4000       8.150000       3.980000       3.980000       3.980000       3.980000       3.980000       3.980000       3.980000    
   3.980000       3.980000       3.980000       3.980000       3.980000       3.980000       3.980000       3.980000       3.980000       3.980000    
   3.980000       3.980000       3.980000       3.980000       3.980000       3.980000       3.980000       3.980000       3.980000       3.980000    
   3.980000       3.980000       3.980000    
   8.150000       131.4000       131.4000       89.14000       89.14000       89.14000       251.7700       251.7700       251.7700       251.7700    
   251.7700       251.7700       251.7700       251.7700       251.7700       251.7700       251.7700       251.7700       251.7700       251.7700    
   251.7700       251.7700       251.7700       251.7700       251.7700       251.7700       251.7700       251.7700       89.14000       89.14000    
   131.4000       8.150000       8.150000       3.980000       3.980000       3.980000       3.980000       3.980000       3.980000       3.980000    
   3.980000       3.980000       3.980000       3.980000       3.980000       3.980000       3.980000       3.980000       3.980000       3.980000    
   3.980000       3.980000       3.980000       3.980000       3.980000       3.980000       3.980000       3.980000       3.980000       3.980000    
   3.980000       3.980000       3.980000    
   131.4000       8.150000       131.4000       89.14000       89.14000       131.4000       131.4000       131.4000       131.4000       131.4000    
   131.4000       131.4000       131.4000       251.7700       251.7700       251.7700       251.7700       251.7700       251.7700       251.7700    
   251.7700       251.7700       251.7700       251.7700       89.14000       89.14000       89.14000       89.14000       131.4000       131.4000    
   131.4000       8.150000       8.150000       3.980000       3.980000       3.980000       3.980000       3.980000       3.980000       3.980000    
   3.980000       3.980000       3.980000       3.980000       3.980000       3.980000       3.980000       3.980000       3.980000       3.980000    
   3.980000       3.980000       3.980000       3.980000       3.980000       3.980000       3.980000       3.980000       3.980000       3.980000    
   3.980000       3.980000       3.980000    
   131.4000       8.150000       131.4000       89.14000       89.14000       131.4000       131.4000       131.4000       131.4000       131.4000    
   131.4000       131.4000       131.4000       89.14000       89.14000       89.14000       89.14000       89.14000       89.14000       89.14000    
   89.14000       89.14000       89.14000       89.14000       89.14000       89.14000       131.4000       131.4000       131.4000       8.150000    
   8.150000       8.150000       3.980000       3.980000       3.980000       3.980000       3.980000       3.980000       3.980000       3.980000    
   3.980000       3.980000       3.980000       3.980000       3.980000       3.980000       3.980000       3.980000       3.980000       3.980000    
   3.980000       3.980000       3.980000       3.980000       3.980000       3.980000       3.980000       3.980000       3.980000       3.980000    
   3.980000       3.980000       3.980000    
   131.4000       8.150000       131.4000       89.14000       89.14000       131.4000       131.4000       131.4000       89.14000       89.14000    