# GHB6 input file, prepared by MF5to6 on 7/11/2022 at 14:24:43.

BEGIN Options
  PRINT_INPUT
  PRINT_FLOWS
END Options

BEGIN Dimensions
  MAXBOUND  14
END Dimensions

BEGIN PERIOD 1
  1  20  1    4430.0000        500.00000
  1  20  2    4430.0000        500.00000
  1  20  3    4430.0000        500.00000
  1  21  1    4430.0000        500.00000
  1  21  2    4430.0000        500.00000
  1  21  3    4430.0000        500.00000
  1  22  1    4430.0000        500.00000
  1  23  1    4430.0000        500.00000
  1  24  1    4430.0000        500.00000
  1  25  1    4430.0000        500.00000
  1  26  1    4430.0000        500.00000
  1  27  1    4430.0000        500.00000
  1  28  1    4430.0000        500.00000
  1  29  1    4430.0000        500.00000
END PERIOD
