# SFR Package for MODFLOW2000
 203  24  0  0  1.283904e+005  1.000000e-002  50  58
  1  56  47  1  1  1109.500000
  1  56  46  1  2  1109.500000
  1  55  46  1  3  1109.500000
  1  55  45  1  4  1109.500000
  1  54  45  1  5  1109.500000
  1  54  44  1  6  1109.500000
  1  53  44  1  7  1109.500000
  1  53  43  1  8  1109.500000
  1  53  42  1  9  1109.500000
  1  53  41  1  10  1109.500000
  1  52  41  1  11  1109.500000
  1  51  41  1  12  1109.500000
  1  51  40  1  13  1109.500000
  1  50  40  1  14  1109.500000
  1  50  39  1  15  1109.500000
  1  50  38  1  16  1109.500000
  1  49  38  1  17  1109.500000
  1  49  39  1  18  1109.500000
  1  48  39  1  19  1109.500000
  1  47  39  1  20  1109.500000
  1  47  38  2  1  783.500000
  1  47  37  2  2  783.500000
  1  46  37  2  3  783.500000
  1  46  36  2  4  783.500000
  1  45  36  2  5  783.500000
  1  45  35  2  6  783.500000
  1  44  35  2  7  783.500000
  1  44  34  2  8  783.500000
  1  43  34  2  9  783.500000
  1  42  34  2  10  783.500000
  1  42  33  2  11  783.500000
  1  41  33  2  12  783.500000
  1  42  32  3  1  940.300000
  1  42  31  3  2  940.300000
  1  43  31  3  3  940.300000
  1  43  30  3  4  940.300000
  1  44  30  3  5  940.300000
  1  44  29  3  6  940.300000
  1  44  28  3  7  940.300000
  1  44  27  3  8  940.300000
  1  44  26  3  9  940.300000
  1  43  26  3  10  940.300000
  1  43  25  3  11  940.300000
  1  41  32  4  1  1177.500000
  1  41  31  4  2  1177.500000
  1  41  30  4  3  1177.500000
  1  41  29  4  4  1177.500000
  1  41  28  4  5  1177.500000
  1  40  28  4  6  1177.500000
  1  40  27  5  1  1131.000000
  1  40  26  5  2  1131.000000
  1  39  26  5  3  1131.000000
  1  39  25  5  4  1131.000000
  1  38  25  6  1  866.900000
  1  37  25  6  2  866.900000
  1  37  24  6  3  866.900000
  1  36  24  6  4  866.900000
  1  36  25  6  5  866.900000
  1  35  25  6  6  866.900000
  1  34  25  6  7  866.900000
  1  34  26  6  8  866.900000
  1  33  26  6  9  866.900000
  1  33  27  6  10  866.900000
  1  32  27  6  11  866.900000
  1  32  28  6  12  866.900000
  1  32  29  6  13  866.900000
  1  31  29  6  14  866.900000
  1  31  30  6  15  866.900000
  1  30  30  6  16  866.900000
  1  30  31  6  17  866.900000
  1  29  31  6  18  866.900000
  1  29  32  6  19  866.900000
  1  28  32  6  20  866.900000
  1  28  33  6  21  866.900000
  1  27  33  6  22  866.900000
  1  27  34  6  23  866.900000
  1  26  34  6  24  866.900000
  1  25  34  6  25  866.900000
  1  39  24  7  1  1203.700000
  1  39  23  7  2  1203.700000
  1  39  22  7  3  1203.700000
  1  40  22  7  4  1203.700000
  1  40  21  7  5  1203.700000
  1  39  21  7  6  1203.700000
  1  39  20  7  7  1203.700000
  1  38  20  7  8  1203.700000
  1  37  20  7  9  1203.700000
  1  37  19  8  1  1106.800000
  1  37  18  8  2  1106.800000
  1  36  18  8  3  1106.800000
  1  36  17  8  4  1106.800000
  1  36  16  8  5  1106.800000
  1  35  18  9  1  892.100000
  1  35  17  9  2  892.100000
  1  34  17  9  3  892.100000
  1  33  17  9  4  892.100000
  1  32  17  9  5  892.100000
  1  31  17  9  6  892.100000
  1  31  18  9  7  892.100000
  1  30  18  9  8  892.100000
  1  29  18  9  9  892.100000
  1  52  7  10  1  970.000000
  1  52  8  10  2  970.000000
  1  51  8  10  3  970.000000
  1  51  9  10  4  970.000000
  1  50  9  10  5  970.000000
  1  50  10  10  6  970.000000
  1  50  11  10  7  970.000000
  1  49  11  10  8  970.000000
  1  49  12  10  9  970.000000
  1  50  12  10  10  970.000000
  1  50  13  10  11  970.000000
  1  49  18  11  1  821.100000
  1  50  18  11  2  821.100000
  1  50  17  11  3  821.100000
  1  50  16  11  4  821.100000
  1  50  15  11  5  821.100000
  1  50  14  11  6  821.100000
  1  49  13  12  1  1024.800000
  1  49  14  12  2  1024.800000
  1  49  15  12  3  1024.800000
  1  48  15  12  4  1024.800000
  1  48  16  12  5  1024.800000
  1  48  17  12  6  1024.800000
  1  47  17  12  7  1024.800000
  1  46  17  12  8  1024.800000
  1  46  16  12  9  1024.800000
  1  45  16  12  10  1024.800000
  1  45  15  12  11  1024.800000
  1  45  14  12  12  1024.800000
  1  44  14  12  13  1024.800000
  1  43  14  12  14  1024.800000
  1  43  13  12  15  1024.800000
  1  42  13  12  16  1024.800000
  1  42  12  13  1  823.000000
  1  42  11  13  2  823.000000
  1  42  10  13  3  823.000000
  1  42  9  13  4  823.000000
  1  42  8  13  5  823.000000
  1  41  8  13  6  823.000000
  1  40  8  13  7  823.000000
  1  40  7  13  8  823.000000
  1  39  7  13  9  823.000000
  1  39  6  13  10  823.000000
  1  38  6  13  11  823.000000
  1  41  13  14  1  1238.000000
  1  40  13  14  2  1238.000000
  1  39  13  15  1  857.400000
  1  38  13  15  2  857.400000
  1  38  14  15  3  857.400000
  1  37  14  15  4  857.400000
  1  36  14  15  5  857.400000
  1  36  15  15  6  857.400000
  1  40  12  16  1  762.600000
  1  39  12  16  2  762.600000
  1  38  12  16  3  762.600000
  1  37  12  16  4  762.600000
  1  37  11  16  5  762.600000
  1  36  11  16  6  762.600000
  1  35  11  16  7  762.600000
  1  34  11  16  8  762.600000
  1  34  10  16  9  762.600000
  1  35  16  17  1  1003.100000
  1  35  15  17  2  1003.100000
  1  35  14  17  3  1003.100000
  1  35  13  17  4  1003.100000
  1  34  13  17  5  1003.100000
  1  34  12  17  6  1003.100000
  1  33  12  17  7  1003.100000
  1  33  11  18  1  1048.000000
  1  33  10  18  2  1048.000000
  1  32  10  18  3  1048.000000
  1  31  10  19  1  1193.500000
  1  31  9  19  2  1193.500000
  1  30  9  19  3  1193.500000
  1  30  8  20  1  603.200000
  1  29  8  20  2  603.200000
  1  29  7  20  3  603.200000
  1  28  7  20  4  603.200000
  1  29  9  21  1  563.200000
  1  29  10  21  2  563.200000
  1  28  10  21  3  563.200000
  1  28  11  21  4  563.200000
  1  27  11  21  5  563.200000
  1  32  9  22  1  2022.600000
  1  32  8  22  2  2022.600000
  1  31  8  22  3  2022.600000
  1  31  7  22  4  2022.600000
  1  31  6  22  5  2022.600000
  1  30  6  22  6  2022.600000
  1  30  5  22  7  2022.600000
  1  29  5  22  8  2022.600000
  1  28  5  23  1  1787.900000
  1  28  4  23  2  1787.900000
  1  28  3  23  3  1787.900000
  1  27  3  23  4  1787.900000
  1  27  2  23  5  1787.900000
  1  26  2  23  6  1787.900000
  1  27  5  24  1  784.900000
  1  27  4  24  2  784.900000
  1  26  4  24  3  784.900000
  1  26  3  24  4  784.900000
  1  25  3  24  5  784.900000
  24  0  0  0
  1  1  2  0  1901000.000000  0.000000  0.000000  0.000000  0.030000
  0.500000  1.000000  4715.500000  13.000000
  0.500000  1.000000  4634.400000  13.000000
  2  1  4  0  0.000000  0.000000  0.000000  0.000000  0.030000
  0.500000  1.000000  4628.600000  13.000000
  0.500000  1.000000  4596.900000  13.000000
  3  1  0  1  0  717120.000000  0.000000  0.000000  0.000000  0.030000
  0.000000  1.000000  4588.800000  13.000000
  0.000000  1.000000  4563.800000  13.000000
  4  1  5  0  0.000000  0.000000  0.000000  0.000000  0.030000
  1.000000  1.000000  4590.900000  9.000000
  1.000000  1.000000  4579.000000  9.000000
  5  1  7  0  0.000000  0.000000  0.000000  0.000000  0.030000
  0.500000  1.000000  4574.800000  7.000000
  0.500000  1.000000  4565.500000  7.000000
  6  1  0  4  0  242784.000000  0.000000  0.000000  0.000000  0.030000
  0.000000  1.000000  4580.700000  16.000000
  0.000000  1.000000  4547.300000  16.000000
  7  1  8  0  0.000000  0.000000  0.000000  0.000000  0.030000
  1.000000  1.000000  4545.200000  10.000000
  1.000000  1.000000  4526.300000  10.000000
  8  1  17  0  0.000000  0.000000  0.000000  0.000000  0.030000
  1.000000  1.000000  4522.800000  8.000000
  1.000000  1.000000  4505.800000  8.000000
  9  1  0  7  0  266976.000000  0.000000  0.000000  0.000000  0.030000
  0.000000  1.000000  4526.900000  10.000000
  0.000000  1.000000  4510.100000  10.000000
  10  1  12  0  301516.000000  0.000000  0.000000  0.000000  0.030000
  0.150000  1.000000  4633.800000  12.000000
  0.150000  1.000000  4593.900000  12.000000
  11  1  12  0  126144.000000  0.000000  0.000000  0.000000  0.030000
  0.000000  1.000000  4588.100000  10.000000
  0.000000  1.000000  4577.800000  10.000000
  12  1  14  0  0.000000  0.000000  0.000000  0.000000  0.030000
  0.500000  1.000000  4590.000000  10.000000
  0.500000  1.000000  4525.700000  10.000000
  13  1  0  12  0  216000.000000  0.000000  0.000000  0.000000  0.030000
  0.000000  1.000000  4528.700000  12.000000
  0.000000  1.000000  4500.000000  12.000000
  14  1  15  0  0.000000  0.000000  0.000000  0.000000  0.030000
  1.000000  1.000000  4521.000000  10.000000
  1.000000  1.000000  4519.000000  10.000000
  15  1  17  0  0.000000  0.000000  0.000000  0.000000  0.030000
  1.000000  1.000000  4517.000000  7.000000
  1.000000  1.000000  4505.000000  7.000000
  16  1  0  14  0  392256.000000  0.000000  0.000000  0.000000  0.030000
  0.000000  1.000000  4516.100000  10.000000
  0.000000  1.000000  4490.400000  10.000000
  17  1  18  0  0.000000  0.000000  0.000000  0.000000  0.030000
  1.000000  1.000000  4499.450000  8.000000
  1.000000  1.000000  4483.980000  8.000000
  18  1  22  0  0.000000  0.000000  0.000000  0.000000  0.030000
  1.000000  1.000000  4481.230000  8.000000
  1.000000  1.000000  4477.300000  8.000000
  19  1  21  18  0  648000.000000  0.000000  0.000000  0.000000  0.030000
  0.000000  1.000000  4480.000000  10.000000
  0.000000  1.000000  4478.000000  10.000000
  20  1  0  19  0  43200.000000  0.000000  0.000000  0.000000  0.030000
  0.000000  1.000000  4479.100000  4.000000
  0.000000  1.000000  4474.000000  4.000000
  21  1  -1  0  0.000000  0.000000  0.000000  0.000000  0.030000
  0.000000  1.000000  4478.000000  10.000000
  0.000000  1.000000  4475.000000  10.000000
  22  1  23  0  0.000000  0.000000  0.000000  0.000000  0.030000
  0.500000  1.000000  4476.200000  16.000000
  0.500000  1.000000  4459.300000  16.000000
  23  1  0  0  0.000000  0.000000  0.000000  0.000000  0.030000
  1.000000  1.000000  4458.700000  18.000000
  1.000000  1.000000  4450.000000  18.000000
  24  1  0  22  0  77760.000000  0.000000  0.000000  0.000000  0.030000
  0.000000  1.000000  4461.000000  10.000000
  0.000000  1.000000  4453.000000  10.000000
