#MODFLOW2000 Dataset Imported into Groundwater Vistas                          
#                                                                              
NO OPTIONS
INTERNAL          1 (20I4)   -1  IBOUND layer   1
   0   0   0   0   0   0   0   0   0   0   0   0   0   0   0   0   0   0   0   0
   0   0   0   0   0   0   0   0   0   0   0   0   0   0   0   0   0   0   0   0
   0   0   0   0   0   0   0   0   0   0   0   0   0   0   0   0   0   0   0   0
   0   0   0
   0   0   0   0   0   0   0   0   0   0   0   0   0   0   0   0   0   0   0   0
   0   0   0   0   0   0   0   0   0   0   0   0   0   0   0   0   0   0   0   0
   0   0   0   0   1   1   1   1   1   1   1   1   1   1   1   1   1   1   1   1
   0   0   0
   0   0   0   0   0   0   0   0   0   0   0   0   0   0   0   0   0   0   0   0
   0   0   0   0   0   0   0   0   0   0   0   0   0   0   0   0   0   0   0   0
   0   0   0   1   1   1   1   1   1   1   1   1   1   1   1   1   1   1   1   1
   0   0   0
   0   0   0   0   0   0   0   0   0   0   0   0   0   0   0   0   0   0   0   0
   0   0   0   0   0   0   0   0   0   0   0   0   0   0   0   0   0   0   0   0
   0   0   1   1   1   1   1   1   1   1   1   1   1   1   1   1   1   1   1   1
   1   0   0
   0   0   0   0   0   0   0   0   0   0   0   0   0   0   0   0   0   0   0   0
   0   0   0   0   0   0   0   0   0   0   0   0   0   0   0   0   0   0   0   0
   0   1   1   1   1   1   1   1   1   1   1   1   1   1   1   1   1   1   1   1
   1   0   0
   0   0   0   0   0   0   0   0   0   0   0   0   0   0   0   0   0   0   0   0
   0   0   0   0   0   0   0   0   0   0   0   0   0   0   0   0   0   0   0   1
   1   1   1   1   1   1   1   1   1   1   1   1   1   1   1   1   1   1   1   1
   1   0   0
   0   0   0   0   0   0   0   0   0   0   0   0   0   0   0   0   0   0   0   0
   0   0   0   0   0   0   0   0   0   0   0   0   0   0   0   0   0   0   1   1
   1   1   1   1   1   1   1   1   1   1   1   1   1   1   1   1   1   1   1   1
   1   0   0
   0   0   0   0   0   0   0   0   0   0   0   0   0   0   0   0   0   0   0   0
   0   0   0   0   0   0   0   0   0   0   0   0   0   0   0   0   0   1   1   1
   1   1   1   1   1   1   1   1   1   1   1   1   1   1   1   1   1   1   1   1
   1   0   0
   0   0   0   0   0   0   0   0   0   0   0   0   0   0   0   0   0   0   0   0
   0   0   0   0   0   0   0   0   0   0   0   0   0   0   0   1   1   1   1   1
   1   1   1   1   1   1   1   1   1   1   1   1   1   1   1   1   1   1   1   1
   1   0   0
   0   0   0   0   0   0   0   0   0   0   0   0   0   0   0   0   0   0   0   0
   0   0   0   0   0   0   0   0   0   0   0   0   1   1   1   1   1   1   1   1
   1   1   1   1   1   1   1   1   1   1   1   1   1   1   1   1   1   1   1   1
   1   0   0
   0   0   0   0   0   0   0   0   0   1   1   1   1   1   1   1   1   1   1   1
   1   1   1   1   1   1   1   1   1   1   1   1   1   1   1   1   1   1   1   1
   1   1   1   1   1   1   1   1   1   1   1   1   1   1   1   1   1   1   1   1
   1   0   0
   0   0   0   0   0   0   0   0   0   1   1   1   1   1   1   1   1   1   1   1
   1   1   1   1   1   1   1   1   1   1   1   1   1   1   1   1   1   1   1   1
   1   1   1   1   1   1   1   1   1   1   1   1   1   1   1   1   1   1   1   1
   1   0   0
   0   0   0   0   0   0   0   0   1   1   1   1   1   1   1   1   1   1   1   1
   1   1   1   1   1   1   1   1   1   1   1   1   1   1   1   1   1   1   1   1
   1   1   1   1   1   1   1   1   1   1   1   1   1   1   1   1   1   1   1   1
   1   0   0
   0   0   0   0   0   0   0   1   1   1   1   1   1   1   1   1   1   1   1   1
   1   1   1   1   1   1   1   1   1   1   1   1   1   1   1   1   1   1   1   1
   1   1   1   1   1   1   1   1   1   1   1   1   1   1   1   1   1   1   1   1
   1   0   0
   0   0   0   0   0   0   0   1   1   1   1   1   1   1   1   1   1   1   1   1
   1   1   1   1   1   1   1   1   1   1   1   1   1   1   1   1   1   1   1   1
   1   1   1   1   1   1   1   1   1   1   1   1   1   1   1   1   1   1   1   1
   1   0   0
   0   0   0   1   1   1   1   1   1   1   1   1   1   1   1   1   1   1   1   1
   1   1   1   1   1   1   1   1   1   1   1   1   1   1   1   1   1   1   1   1
   1   1   1   1   1   1   1   1   1   1   1   1   1   1   1   1   1   1   1   1
   1   0   0
   0   0   0   1   1   1   1   1   1   1   1   1   1   1   1   1   1   1   1   1
   1   1   1   1   1   1   1   1   1   1   1   1   1   1   1   1   1   1   1   1
   1   1   1   1   1   1   1   1   1   1   1   1   1   1   1   1   1   1   1   1
   1   0   0
   0   0   0   1   1   1   1   1   1   1   1   1   1   1   1   1   1   1   1   1
   1   1   1   1   1   1   1   1   1   1   1   1   1   1   1   1   1   1   1   1
   1   1   1   1   1   1   1   1   1   1   1   1   1   1   1   1   1   1   1   1
   1   0   0
   0   0   0   1   1   1   1   1   1   1   1   1   1   1   1   1   1   1   1   1
   1   1   1   1   1   1   1   1   1   1   1   1   1   1   1   1   1   1   1   1
   1   1   1   1   1   1   1   1   1   1   1   1   1   1   1   1   1   1   1   1
   1   0   0
   1   1   1   1   1   1   1   1   1   1   1   1   1   1   1   1   1   1   1   1
   1   1   1   1   1   1   1   1   1   1   1   1   1   1   1   1   1   1   1   1
   1   1   1   1   1   1   1   1   1   1   1   1   1   1   1   1   1   1   1   1
   1   0   0
   1   1   1   1   1   1   1   1   1   1   1   1   1   1   1   1   1   1   1   1
   1   1   1   1   1   1   1   1   1   1   1   1   1   1   1   1   1   1   1   1
   1   1   1   1   1   1   1   1   1   1   1   1   1   1   1   1   1   1   1   1
   1   0   0
   1   1   1   1   1   1   1   1   1   1   1   1   1   1   1   1   1   1   1   1
   1   1   1   1   1   1   1   1   1   1   1   1   1   1   1   1   1   1   1   1
   1   1   1   1   1   1   1   1   1   1   1   1   1   1   1   1   1   1   1   1
   1   0   0
   1   1   1   1   1   1   1   1   1   1   1   1   1   1   1   1   1   1   1   1
   1   1   1   1   1   1   1   1   1   1   1   1   1   1   1   1   1   1   1   1
   1   1   1   1   1   1   1   1   1   1   1   1   1   1   1   1   1   1   1   1
   1   0   0
   1   1   1   1   1   1   1   1   1   1   1   1   1   1   1   1   1   1   1   1
   1   1   1   1   1   1   1   1   1   1   1   1   1   1   1   1   1   1   1   1
   1   1   1   1   1   1   1   1   1   1   1   1   1   1   1   1   1   1   1   1
   1   0   0
   1   1   1   1   1   1   1   1   1   1   1   1   1   1   1   1   1   1   1   1
   1   1   1   1   1   1   1   1   1   1   1   1   1   1   1   1   1   1   1   1
   1   1   1   1   1   1   1   1   1   1   1   1   1   1   1   1   1   1   1   1
   1   0   0
   1   1   1   1   1   1   1   1   1   1   1   1   1   1   1   1   1   1   1   1
   1   1   1   1   1   1   1   1   1   1   1   1   1   1   1   1   1   1   1   1
   1   1   1   1   1   1   1   1   1   1   1   1   1   1   1   1   1   1   1   1
   1   0   0
   1   1   1   1   1   1   1   1   1   1   1   1   1   1   1   1   1   1   1   1
   1   1   1   1   1   1   1   1   1   1   1   1   1   1   1   1   1   1   1   1
   1   1   1   1   1   1   1   1   1   1   1   1   1   1   1   1   1   1   1   1
   1   0   0
   1   1   1   1   1   1   1   1   1   1   1   1   1   1   1   1   1   1   1   1
   1   1   1   1   1   1   1   1   1   1   1   1   1   1   1   1   1   1   1   1
   1   1   1   1   1   1   1   1   1   1   1   1   1   1   1   1   1   1   1   1
   1   0   0
   1   1   1   1   1   1   1   1   1   1   1   1   1   1   1   1   1   1   1   1
   1   1   1   1   1   1   1   1   1   1   1   1   1   1   1   1   1   1   1   1
   1   1   1   1   1   1   1   1   1   1   1   1   1   1   1   1   1   1   1   1
   1   0   0
   0   1   1   1   1   1   1   1   1   1   1   1   1   1   1   1   1   1   1   1
   1   1   1   1   1   1   1   1   1   1   1   1   1   1   1   1   1   1   1   1
   1   1   1   1   1   1   1   1   1   1   1   1   1   1   1   1   1   1   1   1
   1   0   0
   0   1   1   1   1   1   1   1   1   1   1   1   1   1   1   1   1   1   1   1
   1   1   1   1   1   1   1   1   1   1   1   1   1   1   1   1   1   1   1   1
   1   1   1   1   1   1   1   1   1   1   1   1   1   1   1   1   1   1   1   1
   1   0   0
   0   1   1   1   1   1   1   1   1   1   1   1   1   1   1   1   1   1   1   1
   1   1   1   1   1   1   1   1   1   1   1   1   1   1   1   1   1   1   1   1
   1   1   1   1   1   1   1   1   1   1   1   1   1   1   1   1   1   1   1   1
   1   0   0
   0   1   1   1   1   1   1   1   1   1   1   1   1   1   1   1   1   1   1   1
   1   1   1   1   1   1   1   1   1   1   1   1   1   1   1   1   1   1   1   1
   1   1   1   1   1   1   1   1   1   1   1   1   1   1   1   1   1   1   1   1
   1   0   0
   0   1   1   1   1   1   1   1   1   1   1   1   1   1   1   1   1   1   1   1
   1   1   1   1   1   1   1   1   1   1   1   1   1   1   1   1   1   1   1   1
   1   1   1   1   1   1   1   1   1   1   1   1   1   1   1   1   1   1   1   1
   1   0   0
   0   1   1   1   1   1   1   1   1   1   1   1   1   1   1   1   1   1   1   1
   1   1   1   1   1   1   1   1   1   1   1   1   1   1   1   1   1   1   1   1
   1   1   1   1   1   1   1   1   1   1   1   1   1   1   1   1   1   1   1   1
   1   0   0
   0   1   1   1   1   1   1   1   1   1   1   1   1   1   1   1   1   1   1   1
   1   1   1   1   1   1   1   1   1   1   1   1   1   1   1   1   1   1   1   1
   1   1   1   1   1   1   1   1   1   1   1   1   1   1   1   1   1   1   1   1
   1   0   0
   0   1   1   1   1   1   1   1   1   1   1   1   1   1   1   1   1   1   1   1
   1   1   1   1   1   1   1   1   1   1   1   1   1   1   1   1   1   1   1   1
   1   1   1   1   1   1   1   1   1   1   1   1   1   1   1   1   1   1   1   1
   1   0   0
   0   1   1   1   1   1   1   1   1   1   1   1   1   1   1   1   1   1   1   1
   1   1   1   1   1   1   1   1   1   1   1   1   1   1   1   1   1   1   1   1
   1   1   1   1   1   1   1   1   1   1   1   1   1   1   1   1   1   1   1   1
   1   0   0
   0   1   1   1   1   1   1   1   1   1   1   1   1   1   1   1   1   1   1   1
   1   1   1   1   1   1   1   1   1   1   1   1   1   1   1   1   1   1   1   1
   1   1   1   1   1   1   1   1   1   1   1   1   1   1   1   1   1   1   1   1
   1   0   0
   0   1   1   1   1   1   1   1   1   1   1   1   1   1   1   1   1   1   1   1
   1   1   1   1   1   1   1   1   1   1   1   1   1   1   1   1   1   1   1   1
   1   1   1   1   1   1   1   1   1   1   1   1   1   1   1   1   1   1   1   1
   1   0   0
   0   1   1   1   1   1   1   1   1   1   1   1   1   1   1   1   1   1   1   1
   1   1   1   1   1   1   1   1   1   1   1   1   1   1   1   1   1   1   1   1
   1   1   1   1   1   1   1   1   1   1   1   1   1   1   1   1   1   1   1   1
   1   0   0
   0   1   1   1   1   1   1   1   1   1   1   1   1   1   1   1   1   1   1   1
   1   1   1   1   1   1   1   1   1   1   1   1   1   1   1   1   1   1   1   1
   1   1   1   1   1   1   1   1   1   1   1   1   1   1   1   1   1   1   1   1
   1   0   0
   0   1   1   1   1   1   1   1   1   1   1   1   1   1   1   1   1   1   1   1
   1   1   1   1   1   1   1   1   1   1   1   1   1   1   1   1   1   1   1   1
   1   1   1   1   1   1   1   1   1   1   1   1   1   1   1   1   1   1   1   1
   1   0   0
   0   1   1   1   1   1   1   1   1   1   1   1   1   1   1   1   1   1   1   1
   1   1   1   1   1   1   1   1   1   1   1   1   1   1   1   1   1   1   1   1
   1   1   1   1   1   1   1   1   1   1   1   1   1   1   1   1   1   1   1   1
   1   0   0
   0   1   1   1   1   1   1   1   1   1   1   1   1   1   1   1   1   1   1   1
   1   1   1   1   1   1   1   1   1   1   1   1   1   1   1   1   1   1   1   1
   1   1   1   1   1   1   1   1   1   1   1   1   1   1   1   1   1   1   1   1
   1   0   0
   0   0   0   0   0   0   1   1   1   1   1   1   1   1   1   1   1   1   1   1
   1   1   1   1   1   1   1   1   1   1   1   1   1   1   1   1   1   1   1   1
   1   1   1   1   1   1   1   1   1   1   1   1   1   1   1   1   1   1   1   1
   1   0   0
   0   0   0   0   0   0   1   1   1   1   1   1   1   1   1   1   1   1   1   1
   1   1   1   1   1   1   1   1   1   1   1   1   1   1   1   1   1   1   1   1
   1   1   1   1   1   1   1   1   1   1   1   1   1   1   1   1   1   1   1   1
   1   0   0
   0   0   0   0   0   0   1   1   1   1   1   1   1   1   1   1   1   1   1   1
   1   1   1   1   1   1   1   1   1   1   1   1   1   1   1   1   1   1   1   1
   1   1   1   1   1   1   1   1   1   1   1   1   1   1   1   1   1   1   1   1
   1   0   0
   0   0   0   0   0   0   1   1   1   1   1   1   1   1   1   1   1   1   1   1
   1   1   1   1   1   1   1   1   1   1   1   1   1   1   1   1   1   1   1   1
   1   1   1   1   1   1   1   1   1   1   1   1   1   1   1   1   1   1   1   1
   1   0   0
   0   0   0   0   0   0   1   1   1   1   1   1   1   1   1   1   1   1   1   1
   1   1   1   1   1   1   1   1   1   1   1   1   1   1   1   1   1   1   1   1
   1   1   1   1   1   1   1   1   1   1   1   1   1   1   1   1   1   1   1   1
   1   0   0
   0   0   0   0   0   0   1   1   1   1   1   1   1   1   1   1   1   1   1   1
   1   1   1   1   1   1   1   1   1   1   1   1   1   1   1   1   1   1   1   1
   1   1   1   1   1   1   1   1   1   1   1   1   1   1   1   1   1   1   1   1
   1   0   0
   0   0   0   0   0   0   1   1   1   1   1   1   1   1   1   1   1   1   1   1
   1   1   1   1   1   1   1   1   1   1   1   1   1   1   1   1   1   1   1   1
   1   1   1   1   1   1   1   1   1   1   1   1   1   1   1   1   1   1   1   1
   1   0   0
   0   0   0   0   0   0   0   1   1   1   1   1   1   1   1   1   1   1   1   1
   1   1   1   1   1   1   1   1   1   1   1   1   1   1   1   1   1   1   1   1
   1   1   1   1   1   1   1   1   1   1   1   1   1   1   1   1   1   1   1   1
   1   0   0
   0   0   0   0   0   0   0   1   1   1   1   1   1   1   1   1   1   1   1   1
   1   1   1   1   1   1   1   1   1   1   1   1   1   1   1   1   1   1   1   1
   1   1   1   1   1   1   1   1   1   1   1   1   1   1   1   1   1   1   1   1
   1   0   0
   0   0   0   0   0   0   0   0   0   0   0   0   0   0   0   0   0   0   0   0
   0   0   0   1   1   1   1   1   1   1   1   1   1   1   1   1   1   1   1   1
   1   1   1   1   1   1   1   1   1   1   1   1   1   1   1   1   1   1   1   1
   1   0   0
   0   0   0   0   0   0   0   0   0   0   0   0   0   0   0   0   0   0   0   0
   0   0   0   1   1   1   1   1   1   1   1   1   1   1   1   1   1   1   1   1
   1   1   1   1   1   1   1   1   1   1   1   1   1   1   1   1   1   1   1   1
   0   0   0
   0   0   0   0   0   0   0   0   0   0   0   0   0   0   0   0   0   0   0   0
   0   0   0   0   0   0   0   0   0   0   0   0   0   0   0   0   0   0   0   0
   0   0   0   0   0   0   0   0   0   0   0   0   0   0   0   0   0   0   0   0
   0   0   0
    999.00  HNOFLO
INTERNAL   1.000000E+00 (10F13.0)   -1  Initial Head layer   1
 4.395400E+03 4.385400E+03 4.371300E+03 4.369300E+03 4.374800E+03 4.374700E+03 4.394500E+03 4.407300E+03 4.405800E+03 4.384800E+03
 4.378100E+03 4.386200E+03 4.393100E+03 4.401200E+03 4.418900E+03 4.440100E+03 4.457700E+03 4.472000E+03 4.467100E+03 4.474600E+03
 4.484300E+03 4.500200E+03 4.525600E+03 4.540800E+03 4.546300E+03 4.545500E+03 4.538400E+03 4.536100E+03 4.528200E+03 4.561000E+03
 4.573100E+03 4.601900E+03 4.673000E+03 4.822200E+03 4.846600E+03 4.819300E+03 4.875500E+03 4.900700E+03 4.857700E+03 4.802800E+03
 4.845100E+03 4.810700E+03 4.765400E+03 4.758300E+03 4.719000E+03 4.666100E+03 4.650300E+03 4.628700E+03 4.598800E+03 4.596400E+03
 4.572900E+03 4.558400E+03 4.541700E+03 4.526200E+03 4.516700E+03 4.509200E+03 4.506500E+03 4.502100E+03 4.502600E+03 4.506200E+03
 4.512400E+03 4.519300E+03 4.526300E+03
 4.417500E+03 4.418600E+03 4.411000E+03 4.391300E+03 4.375200E+03 4.377200E+03 4.384600E+03 4.394700E+03 4.415500E+03 4.402900E+03
 4.389200E+03 4.393800E+03 4.401800E+03 4.422600E+03 4.433800E+03 4.443200E+03 4.469700E+03 4.481300E+03 4.483800E+03 4.490500E+03
 4.508300E+03 4.536600E+03 4.578100E+03 4.679300E+03 4.623000E+03 4.580300E+03 4.567700E+03 4.565400E+03 4.543600E+03 4.567900E+03
 4.595700E+03 4.615300E+03 4.651700E+03 4.757000E+03 4.850500E+03 4.871400E+03 4.882500E+03 4.880100E+03 4.849400E+03 4.835300E+03
 4.845700E+03 4.796100E+03 4.750900E+03 4.725500E+03 4.708100E+03 4.680000E+03 4.681700E+03 4.673700E+03 4.624600E+03 4.590400E+03
 4.580000E+03 4.557700E+03 4.540800E+03 4.526500E+03 4.520700E+03 4.518400E+03 4.511400E+03 4.506100E+03 4.505000E+03 4.508500E+03
 4.514200E+03 4.521100E+03 4.530200E+03
 4.403900E+03 4.417600E+03 4.424500E+03 4.413000E+03 4.403100E+03 4.389000E+03 4.387200E+03 4.394800E+03 4.413000E+03 4.422300E+03
 4.419600E+03 4.420300E+03 4.418000E+03 4.430200E+03 4.443800E+03 4.454100E+03 4.462100E+03 4.480200E+03 4.495100E+03 4.510000E+03
 4.535200E+03 4.564600E+03 4.629300E+03 4.721300E+03 4.644400E+03 4.614100E+03 4.587800E+03 4.575400E+03 4.573900E+03 4.582100E+03
 4.617600E+03 4.646100E+03 4.697300E+03 4.806100E+03 4.841300E+03 4.898700E+03 4.895700E+03 4.874200E+03 4.864300E+03 4.852700E+03
 4.820800E+03 4.785700E+03 4.767000E+03 4.743100E+03 4.736000E+03 4.721100E+03 4.701700E+03 4.668900E+03 4.643300E+03 4.628700E+03
 4.608700E+03 4.567900E+03 4.546900E+03 4.533300E+03 4.524900E+03 4.521900E+03 4.519400E+03 4.510200E+03 4.506900E+03 4.508900E+03
 4.515000E+03 4.522100E+03 4.535000E+03
 4.381800E+03 4.398700E+03 4.404300E+03 4.407900E+03 4.404900E+03 4.405400E+03 4.396800E+03 4.401700E+03 4.420000E+03 4.443700E+03
 4.462400E+03 4.461200E+03 4.446000E+03 4.438400E+03 4.451700E+03 4.464900E+03 4.478000E+03 4.478400E+03 4.502200E+03 4.523500E+03
 4.548100E+03 4.583700E+03 4.642300E+03 4.749100E+03 4.713100E+03 4.647700E+03 4.612000E+03 4.596600E+03 4.605200E+03 4.625300E+03
 4.635200E+03 4.736500E+03 4.801500E+03 4.895500E+03 4.947200E+03 4.936500E+03 4.905300E+03 4.888500E+03 4.877800E+03 4.837600E+03
 4.839400E+03 4.842600E+03 4.807200E+03 4.769500E+03 4.735800E+03 4.716700E+03 4.694500E+03 4.675300E+03 4.663100E+03 4.641200E+03
 4.599300E+03 4.562000E+03 4.547500E+03 4.539700E+03 4.532100E+03 4.525400E+03 4.524500E+03 4.519800E+03 4.512000E+03 4.510200E+03
 4.516200E+03 4.521900E+03 4.527700E+03
 4.399400E+03 4.407000E+03 4.414500E+03 4.413200E+03 4.419800E+03 4.412600E+03 4.401700E+03 4.406000E+03 4.423200E+03 4.443200E+03
 4.457900E+03 4.467600E+03 4.465500E+03 4.457300E+03 4.469700E+03 4.482400E+03 4.499200E+03 4.505500E+03 4.518400E+03 4.522800E+03
 4.536000E+03 4.580700E+03 4.633700E+03 4.723000E+03 4.711700E+03 4.662300E+03 4.628000E+03 4.634500E+03 4.658900E+03 4.711500E+03
 4.656000E+03 4.706800E+03 4.833900E+03 4.968900E+03 4.983900E+03 4.952700E+03 4.945300E+03 4.929700E+03 4.881700E+03 4.892200E+03
 4.904800E+03 4.896900E+03 4.855600E+03 4.806100E+03 4.776300E+03 4.754600E+03 4.730100E+03 4.688500E+03 4.653600E+03 4.618100E+03
 4.586900E+03 4.566900E+03 4.557200E+03 4.549200E+03 4.540000E+03 4.534400E+03 4.531000E+03 4.526900E+03 4.520200E+03 4.519400E+03
 4.522200E+03 4.523900E+03 4.527900E+03
 4.400700E+03 4.414500E+03 4.425100E+03 4.428400E+03 4.446200E+03 4.429900E+03 4.412400E+03 4.417600E+03 4.425400E+03 4.434800E+03
 4.446000E+03 4.460600E+03 4.473800E+03 4.477500E+03 4.492500E+03 4.506100E+03 4.525800E+03 4.544500E+03 4.581200E+03 4.568400E+03
 4.541900E+03 4.583700E+03 4.639800E+03 4.686800E+03 4.744000E+03 4.706700E+03 4.666500E+03 4.686800E+03 4.723500E+03 4.860800E+03
 4.723300E+03 4.740900E+03 4.930300E+03 5.034900E+03 5.023000E+03 4.984500E+03 4.951400E+03 4.929100E+03 4.900700E+03 4.902300E+03
 4.894400E+03 4.859500E+03 4.811900E+03 4.783800E+03 4.751500E+03 4.726900E+03 4.703900E+03 4.700900E+03 4.680200E+03 4.653300E+03
 4.606700E+03 4.579800E+03 4.570900E+03 4.564500E+03 4.548000E+03 4.542100E+03 4.535500E+03 4.529400E+03 4.526200E+03 4.524800E+03
 4.527900E+03 4.527000E+03 4.534400E+03
 4.401500E+03 4.416400E+03 4.424400E+03 4.442600E+03 4.471200E+03 4.462800E+03 4.438600E+03 4.444400E+03 4.442000E+03 4.448300E+03
 4.457600E+03 4.471000E+03 4.488000E+03 4.497700E+03 4.513600E+03 4.536200E+03 4.564500E+03 4.587100E+03 4.620400E+03 4.623800E+03
 4.568100E+03 4.569200E+03 4.610000E+03 4.651500E+03 4.724500E+03 4.736100E+03 4.718900E+03 4.733100E+03 4.819300E+03 4.948500E+03
 4.790800E+03 4.880200E+03 4.854300E+03 5.015600E+03 5.024200E+03 4.976800E+03 4.965400E+03 4.946900E+03 4.908800E+03 4.877600E+03
 4.830400E+03 4.804900E+03 4.782500E+03 4.756000E+03 4.738300E+03 4.709500E+03 4.690300E+03 4.670400E+03 4.653600E+03 4.637900E+03
 4.619100E+03 4.609800E+03 4.594000E+03 4.582000E+03 4.560600E+03 4.547000E+03 4.536200E+03 4.528100E+03 4.526900E+03 4.527500E+03
 4.533900E+03 4.534800E+03 4.541700E+03
 4.414500E+03 4.435400E+03 4.444500E+03 4.454600E+03 4.467300E+03 4.469700E+03 4.464300E+03 4.467500E+03 4.456500E+03 4.463800E+03
 4.475800E+03 4.490600E+03 4.505300E+03 4.525700E+03 4.540600E+03 4.572200E+03 4.613400E+03 4.712800E+03 4.727700E+03 4.638100E+03
 4.600700E+03 4.605500E+03 4.619700E+03 4.649700E+03 4.725000E+03 4.790300E+03 4.848500E+03 4.805200E+03 4.866600E+03 5.022800E+03
 4.967100E+03 5.032000E+03 5.028900E+03 5.086200E+03 5.051000E+03 4.992800E+03 4.986100E+03 4.973600E+03 4.951700E+03 4.924700E+03
 4.874300E+03 4.827700E+03 4.806000E+03 4.811600E+03 4.770800E+03 4.736900E+03 4.716700E+03 4.699700E+03 4.685300E+03 4.661000E+03
 4.697900E+03 4.666900E+03 4.635400E+03 4.599700E+03 4.569000E+03 4.551600E+03 4.537700E+03 4.524600E+03 4.522900E+03 4.534100E+03
 4.547000E+03 4.544200E+03 4.545900E+03
 4.430500E+03 4.442400E+03 4.449200E+03 4.451700E+03 4.463900E+03 4.478200E+03 4.487500E+03 4.478600E+03 4.467500E+03 4.473500E+03
 4.487400E+03 4.503000E+03 4.525400E+03 4.550000E+03 4.570300E+03 4.604300E+03 4.676100E+03 4.733600E+03 4.684100E+03 4.690100E+03
 4.673700E+03 4.694000E+03 4.689200E+03 4.744900E+03 4.743500E+03 4.865500E+03 4.892500E+03 4.980400E+03 5.003000E+03 5.054700E+03
 5.150400E+03 5.126300E+03 5.136100E+03 5.117600E+03 5.057100E+03 5.031200E+03 5.041600E+03 5.010900E+03 4.948200E+03 4.904000E+03
 4.899600E+03 4.866200E+03 4.835300E+03 4.835100E+03 4.831000E+03 4.799900E+03 4.772400E+03 4.755000E+03 4.730200E+03 4.727100E+03
 4.707800E+03 4.678500E+03 4.636800E+03 4.600800E+03 4.596600E+03 4.569800E+03 4.543200E+03 4.538300E+03 4.536300E+03 4.551500E+03
 4.574200E+03 4.552600E+03 4.547100E+03
 4.431100E+03 4.432900E+03 4.440700E+03 4.447200E+03 4.466100E+03 4.480900E+03 4.482300E+03 4.473600E+03 4.471600E+03 4.482600E+03
 4.498100E+03 4.515200E+03 4.539000E+03 4.566000E+03 4.609600E+03 4.631400E+03 4.664200E+03 4.760200E+03 4.850500E+03 4.925900E+03
 4.895700E+03 4.926200E+03 4.790200E+03 4.961700E+03 4.974000E+03 5.007600E+03 5.049000E+03 5.082000E+03 5.101900E+03 5.149300E+03
 5.152300E+03 5.159000E+03 5.146700E+03 5.100400E+03 5.037200E+03 5.066300E+03 5.046700E+03 4.993800E+03 4.927500E+03 4.847900E+03
 4.813700E+03 4.786300E+03 4.764600E+03 4.748100E+03 4.819800E+03 4.877300E+03 4.880500E+03 4.844800E+03 4.791500E+03 4.778900E+03
 4.762300E+03 4.704500E+03 4.632300E+03 4.589100E+03 4.577400E+03 4.556500E+03 4.553600E+03 4.551600E+03 4.552200E+03 4.552400E+03
 4.551500E+03 4.551900E+03 4.548300E+03
 4.417500E+03 4.427900E+03 4.439100E+03 4.442000E+03 4.463500E+03 4.466300E+03 4.459100E+03 4.461400E+03 4.470000E+03 4.491000E+03
 4.509400E+03 4.533800E+03 4.563500E+03 4.590400E+03 4.622800E+03 4.657600E+03 4.780900E+03 4.946200E+03 4.971400E+03 4.982400E+03
 4.986900E+03 4.988900E+03 4.988900E+03 5.015900E+03 5.039500E+03 5.067400E+03 5.086300E+03 5.095000E+03 5.115500E+03 5.100300E+03
 5.083100E+03 5.076200E+03 5.085000E+03 5.034500E+03 4.973100E+03 5.042600E+03 5.029300E+03 4.977400E+03 4.943600E+03 4.915800E+03
 4.893500E+03 4.861900E+03 4.806800E+03 4.729600E+03 4.742600E+03 4.787400E+03 4.810400E+03 4.822900E+03 4.789000E+03 4.738200E+03
 4.729300E+03 4.670900E+03 4.614900E+03 4.575500E+03 4.550500E+03 4.549600E+03 4.557800E+03 4.560800E+03 4.566900E+03 4.567500E+03
 4.570300E+03 4.562400E+03 4.555300E+03
 4.426300E+03 4.428200E+03 4.439400E+03 4.444900E+03 4.448400E+03 4.458900E+03 4.462700E+03 4.464600E+03 4.476800E+03 4.500200E+03
 4.524900E+03 4.552000E+03 4.582200E+03 4.621100E+03 4.691400E+03 4.837400E+03 4.908300E+03 4.978400E+03 4.986400E+03 4.986800E+03
 4.986100E+03 4.992400E+03 5.007700E+03 5.020200E+03 5.030300E+03 5.068600E+03 5.061000E+03 5.049200E+03 5.072800E+03 5.026300E+03
 4.976400E+03 5.000200E+03 5.001200E+03 4.946300E+03 4.956800E+03 5.016100E+03 4.978400E+03 4.944300E+03 4.892900E+03 4.850800E+03
 4.812000E+03 4.784600E+03 4.752000E+03 4.729400E+03 4.682600E+03 4.693400E+03 4.721100E+03 4.699500E+03 4.688600E+03 4.650100E+03
 4.630200E+03 4.611700E+03 4.592600E+03 4.567600E+03 4.563000E+03 4.562400E+03 4.569100E+03 4.574900E+03 4.575500E+03 4.573100E+03
 4.569800E+03 4.565300E+03 4.563100E+03
 4.459300E+03 4.435400E+03 4.455900E+03 4.473000E+03 4.473600E+03 4.468800E+03 4.469100E+03 4.470600E+03 4.487700E+03 4.510400E+03
 4.539700E+03 4.576500E+03 4.612200E+03 4.652300E+03 4.835500E+03 4.989600E+03 5.003900E+03 4.995300E+03 4.987100E+03 4.986700E+03
 4.983600E+03 4.992500E+03 5.009200E+03 5.016800E+03 5.042000E+03 5.053200E+03 5.023400E+03 4.974400E+03 5.044300E+03 5.027400E+03
 4.884900E+03 4.857300E+03 4.866900E+03 4.908200E+03 4.992600E+03 4.972400E+03 4.867600E+03 4.848300E+03 4.895400E+03 4.887800E+03
 4.819200E+03 4.767800E+03 4.719100E+03 4.687600E+03 4.668600E+03 4.642200E+03 4.639600E+03 4.640000E+03 4.627800E+03 4.603800E+03
 4.592900E+03 4.582300E+03 4.571500E+03 4.568300E+03 4.569100E+03 4.579600E+03 4.589300E+03 4.587000E+03 4.580700E+03 4.570100E+03
 4.565600E+03 4.566600E+03 4.567900E+03
 4.476800E+03 4.454800E+03 4.445600E+03 4.463000E+03 4.469100E+03 4.467900E+03 4.468400E+03 4.476000E+03 4.489600E+03 4.516100E+03
 4.551400E+03 4.603200E+03 4.695100E+03 4.814100E+03 4.939600E+03 5.040000E+03 5.023100E+03 5.002100E+03 4.983800E+03 4.983400E+03
 4.982800E+03 4.985900E+03 4.999000E+03 5.004100E+03 5.022800E+03 5.029800E+03 4.985700E+03 4.895200E+03 4.969900E+03 4.958700E+03
 4.888800E+03 4.810600E+03 4.897600E+03 4.954600E+03 4.931800E+03 4.889600E+03 4.808200E+03 4.786400E+03 4.870200E+03 4.898800E+03
 4.847900E+03 4.781800E+03 4.750700E+03 4.719200E+03 4.659000E+03 4.630600E+03 4.616300E+03 4.606100E+03 4.594500E+03 4.586500E+03
 4.580400E+03 4.576400E+03 4.577800E+03 4.581800E+03 4.587200E+03 4.591000E+03 4.591100E+03 4.587300E+03 4.577400E+03 4.572800E+03
 4.569700E+03 4.570800E+03 4.573900E+03
 4.487500E+03 4.482500E+03 4.466800E+03 4.462600E+03 4.468200E+03 4.469800E+03 4.469600E+03 4.478500E+03 4.492200E+03 4.516000E+03
 4.554900E+03 4.613100E+03 4.711100E+03 4.888700E+03 5.016200E+03 5.036100E+03 5.014200E+03 4.995500E+03 4.981100E+03 4.973900E+03
 4.976100E+03 4.982200E+03 5.004800E+03 5.029800E+03 5.016000E+03 4.992100E+03 4.962300E+03 4.888200E+03 4.863700E+03 4.901000E+03
 4.910400E+03 4.801200E+03 4.822600E+03 4.851300E+03 4.816500E+03 4.777100E+03 4.739500E+03 4.747900E+03 4.791000E+03 4.794600E+03
 4.816600E+03 4.778300E+03 4.729100E+03 4.672600E+03 4.654300E+03 4.620200E+03 4.607900E+03 4.597700E+03 4.589800E+03 4.584900E+03
 4.582200E+03 4.585800E+03 4.590000E+03 4.592000E+03 4.592200E+03 4.594400E+03 4.588700E+03 4.582600E+03 4.581800E+03 4.581700E+03
 4.577300E+03 4.577600E+03 4.579600E+03
 4.497600E+03 4.498200E+03 4.487300E+03 4.496000E+03 4.491500E+03 4.491800E+03 4.480000E+03 4.479400E+03 4.490800E+03 4.511700E+03
 4.543700E+03 4.583500E+03 4.623200E+03 4.745000E+03 4.886300E+03 4.992700E+03 5.001300E+03 4.991200E+03 4.981900E+03 4.969100E+03
 4.968700E+03 4.961800E+03 4.988100E+03 5.000900E+03 4.971100E+03 4.936400E+03 4.822800E+03 4.831900E+03 4.800900E+03 4.796500E+03
 4.851000E+03 4.797600E+03 4.749600E+03 4.749400E+03 4.722800E+03 4.697700E+03 4.684300E+03 4.677600E+03 4.675700E+03 4.680100E+03
 4.689400E+03 4.678900E+03 4.654500E+03 4.621900E+03 4.610700E+03 4.600500E+03 4.594400E+03 4.588100E+03 4.585600E+03 4.585200E+03
 4.588100E+03 4.592400E+03 4.595100E+03 4.598400E+03 4.597000E+03 4.593700E+03 4.588100E+03 4.584600E+03 4.587900E+03 4.588200E+03
 4.583500E+03 4.584700E+03 4.586400E+03
 4.490600E+03 4.495200E+03 4.502200E+03 4.511500E+03 4.510100E+03 4.501300E+03 4.488200E+03 4.482700E+03 4.487600E+03 4.504200E+03
 4.528200E+03 4.555200E+03 4.581300E+03 4.614600E+03 4.657500E+03 4.735500E+03 4.879400E+03 4.896900E+03 4.942700E+03 4.955100E+03
 4.926800E+03 4.854800E+03 4.880100E+03 4.877000E+03 4.820100E+03 4.795500E+03 4.749800E+03 4.689200E+03 4.694900E+03 4.733900E+03
 4.732500E+03 4.744900E+03 4.717100E+03 4.690700E+03 4.680700E+03 4.668500E+03 4.656500E+03 4.648800E+03 4.637400E+03 4.633900E+03
 4.630400E+03 4.632400E+03 4.643800E+03 4.617500E+03 4.594300E+03 4.585900E+03 4.583500E+03 4.586300E+03 4.586100E+03 4.590200E+03
 4.593200E+03 4.606600E+03 4.606200E+03 4.603400E+03 4.599900E+03 4.596400E+03 4.589000E+03 4.589200E+03 4.593900E+03 4.593500E+03
 4.591000E+03 4.597100E+03 4.600000E+03
 4.500400E+03 4.523800E+03 4.527800E+03 4.524100E+03 4.511400E+03 4.498600E+03 4.486400E+03 4.482600E+03 4.483000E+03 4.490300E+03
 4.507900E+03 4.529000E+03 4.548000E+03 4.574500E+03 4.601900E+03 4.636500E+03 4.671300E+03 4.768900E+03 4.767500E+03 4.739400E+03
 4.731200E+03 4.741000E+03 4.718300E+03 4.742700E+03 4.754700E+03 4.671400E+03 4.651700E+03 4.636700E+03 4.664500E+03 4.650000E+03
 4.677000E+03 4.694400E+03 4.676500E+03 4.665700E+03 4.666000E+03 4.666500E+03 4.658300E+03 4.637200E+03 4.625200E+03 4.612800E+03
 4.610300E+03 4.604500E+03 4.602000E+03 4.595500E+03 4.590000E+03 4.585600E+03 4.585600E+03 4.590600E+03 4.596800E+03 4.601200E+03
 4.604500E+03 4.610900E+03 4.610500E+03 4.605900E+03 4.602700E+03 4.601200E+03 4.597000E+03 4.597300E+03 4.604000E+03 4.609900E+03
 4.621100E+03 4.628800E+03 4.617400E+03
 4.460600E+03 4.511300E+03 4.511900E+03 4.520600E+03 4.505000E+03 4.488600E+03 4.482600E+03 4.482600E+03 4.482600E+03 4.482700E+03