# RCH6 input file, prepared by MF5to6 on 7/11/2022 at 14:24:43.

BEGIN Options
  READASARRAYS
  SAVE_FLOWS
END Options

BEGIN PERIOD 1
  RECHARGE
    INTERNAL  FACTOR  1.0  IPRN   12
 0.1816000E-03  0.1816000E-03  0.1816000E-03  0.1816000E-03  0.1816000E-03  0.1816000E-03
 0.1816000E-03  0.1816000E-03  0.1816000E-03  0.1816000E-03  0.1816000E-03  0.1816000E-03
 0.1816000E-03  0.1816000E-03  0.1816000E-03  0.1816000E-03  0.1816000E-03  0.1816000E-03
 0.1816000E-03  0.1816000E-03  0.1816000E-03  0.1816000E-03  0.1816000E-03  0.1816000E-03
 0.1816000E-03  0.1816000E-03  0.1816000E-03  0.1816000E-03  0.1816000E-03  0.1816000E-03
 0.1816000E-03  0.1816000E-03  0.1816000E-03  0.1816000E-03  0.1816000E-03  0.1816000E-03
 0.1816000E-03  0.1816000E-03  0.1816000E-03  0.1816000E-03  0.1816000E-03  0.1816000E-03
 0.1816000E-03  0.1816000E-03  0.1816000E-03  0.1816000E-03  0.1816000E-03  0.1816000E-03
 0.1816000E-03  0.1816000E-03  0.1816000E-03  0.1816000E-03  0.1816000E-03  0.1816000E-03
 0.1816000E-03  0.1816000E-03  0.1816000E-03  0.1816000E-03  0.1816000E-03  0.1816000E-03
 0.1816000E-03  0.1816000E-03  0.1816000E-03
 0.1816000E-03  0.1816000E-03  0.1816000E-03  0.1816000E-03  0.1816000E-03  0.1816000E-03
 0.1816000E-03  0.1816000E-03  0.1816000E-03  0.1816000E-03  0.1816000E-03  0.1816000E-03
 0.1816000E-03  0.1816000E-03  0.1816000E-03  0.1816000E-03  0.1816000E-03  0.1816000E-03
 0.1816000E-03  0.1816000E-03  0.1816000E-03  0.1816000E-03  0.1816000E-03  0.1816000E-03
 0.1816000E-03  0.1816000E-03  0.1816000E-03  0.1816000E-03  0.1816000E-03  0.1816000E-03
 0.1816000E-03  0.1816000E-03  0.1816000E-03  0.1816000E-03  0.1816000E-03  0.1816000E-03
 0.1816000E-03  0.1816000E-03  0.1816000E-03  0.1816000E-03  0.1816000E-03  0.1816000E-03
 0.1816000E-03  0.1816000E-03  0.1816000E-03  0.1816000E-03  0.1816000E-03  0.1816000E-03
 0.1816000E-03  0.1816000E-03  0.1816000E-03  0.1816000E-03 -0.3300000E-02 -0.3300000E-02
-0.3300000E-02 -0.3300000E-02 -0.3300000E-02 -0.3300000E-02 -0.3300000E-02 -0.3300000E-02
 0.1816000E-03  0.1816000E-03  0.1816000E-03
 0.1816000E-03  0.1816000E-03  0.1816000E-03  0.1816000E-03  0.1816000E-03  0.1816000E-03
 0.1816000E-03  0.1816000E-03  0.1816000E-03  0.1816000E-03  0.1816000E-03  0.1816000E-03
 0.1816000E-03  0.1816000E-03  0.1816000E-03  0.1816000E-03  0.1816000E-03  0.1816000E-03
 0.1816000E-03  0.1816000E-03  0.1816000E-03  0.1816000E-03  0.1816000E-03  0.1816000E-03
 0.1816000E-03  0.1816000E-03  0.1816000E-03  0.1816000E-03  0.1816000E-03  0.1816000E-03
 0.1816000E-03  0.1816000E-03  0.1816000E-03  0.1816000E-03  0.1816000E-03  0.1816000E-03
 0.1816000E-03  0.1816000E-03  0.1816000E-03  0.1816000E-03  0.1816000E-03  0.1816000E-03
 0.1816000E-03  0.1816000E-03  0.1816000E-03  0.1816000E-03  0.1816000E-03  0.1816000E-03
 0.1816000E-03  0.1816000E-03  0.1816000E-03  0.1816000E-03 -0.3300000E-02 -0.3300000E-02
-0.3300000E-02 -0.3300000E-02 -0.3300000E-02 -0.3300000E-02 -0.3300000E-02 -0.3300000E-02
-0.3300000E-02  0.1816000E-03  0.1816000E-03
 0.1816000E-03  0.1816000E-03  0.1816000E-03  0.1816000E-03  0.1816000E-03  0.1816000E-03
 0.1816000E-03  0.1816000E-03  0.1816000E-03  0.1816000E-03  0.1816000E-03  0.1816000E-03
 0.1816000E-03  0.1816000E-03  0.1816000E-03  0.1816000E-03  0.1816000E-03  0.1816000E-03
 0.1816000E-03  0.1816000E-03  0.1816000E-03  0.1816000E-03  0.1816000E-03  0.1816000E-03
 0.1816000E-03  0.1816000E-03  0.1816000E-03  0.1816000E-03  0.1816000E-03  0.1816000E-03
 0.1816000E-03  0.1816000E-03  0.1816000E-03  0.1816000E-03  0.1816000E-03  0.1816000E-03
 0.1816000E-03  0.1816000E-03  0.1816000E-03  0.1816000E-03  0.1816000E-03  0.1816000E-03
 0.1816000E-03  0.1816000E-03  0.1816000E-03  0.1816000E-03  0.1816000E-03  0.1816000E-03
 0.1816000E-03  0.1816000E-03  0.1816000E-03  0.1816000E-03  0.1816000E-03 -0.3300000E-02
-0.3300000E-02 -0.3300000E-02 -0.3300000E-02 -0.3300000E-02 -0.3300000E-02 -0.3300000E-02
-0.3300000E-02  0.1816000E-03  0.1816000E-03
 0.1816000E-03  0.1816000E-03  0.1816000E-03  0.1816000E-03  0.1816000E-03  0.1816000E-03
 0.1816000E-03  0.1816000E-03  0.1816000E-03  0.1816000E-03  0.1816000E-03  0.1816000E-03
 0.1816000E-03  0.1816000E-03  0.1816000E-03  0.1816000E-03  0.1816000E-03  0.1816000E-03
 0.1816000E-03  0.1816000E-03  0.1816000E-03  0.1816000E-03  0.1816000E-03  0.1816000E-03
 0.1816000E-03  0.1816000E-03  0.1816000E-03  0.1816000E-03  0.1816000E-03  0.1816000E-03
 0.1816000E-03  0.1816000E-03  0.1816000E-03  0.1816000E-03  0.1816000E-03  0.1816000E-03
 0.1816000E-03  0.1816000E-03  0.1816000E-03  0.1816000E-03  0.1816000E-03  0.1816000E-03
 0.1816000E-03  0.1816000E-03  0.1816000E-03  0.1816000E-03  0.1816000E-03  0.1816000E-03
 0.1816000E-03  0.1816000E-03  0.1816000E-03  0.1816000E-03  0.1816000E-03 -0.3300000E-02
-0.3300000E-02 -0.3300000E-02 -0.3300000E-02 -0.3300000E-02 -0.3300000E-02 -0.3300000E-02
-0.3300000E-02  0.1816000E-03  0.1816000E-03
 0.1816000E-03  0.1816000E-03  0.1816000E-03  0.1816000E-03  0.1816000E-03  0.1816000E-03
 0.1816000E-03  0.1816000E-03  0.1816000E-03  0.1816000E-03  0.1816000E-03  0.1816000E-03
 0.1816000E-03  0.1816000E-03  0.1816000E-03  0.1816000E-03  0.1816000E-03  0.1816000E-03
 0.1816000E-03  0.1816000E-03  0.1816000E-03  0.1816000E-03  0.1816000E-03  0.1816000E-03
 0.1816000E-03  0.1816000E-03  0.1816000E-03  0.1816000E-03  0.1816000E-03  0.1816000E-03
 0.1816000E-03  0.1816000E-03  0.1816000E-03  0.1816000E-03  0.1816000E-03  0.1816000E-03
 0.1816000E-03  0.1816000E-03  0.1816000E-03  0.1816000E-03  0.1816000E-03  0.1816000E-03
 0.1816000E-03  0.1816000E-03  0.1816000E-03  0.1816000E-03  0.1816000E-03  0.1816000E-03
 0.1816000E-03  0.1816000E-03  0.1816000E-03  0.1816000E-03  0.1816000E-03  0.1816000E-03
-0.3300000E-02 -0.3300000E-02 -0.3300000E-02 -0.3300000E-02 -0.3300000E-02 -0.3300000E-02
-0.3300000E-02  0.1816000E-03  0.1816000E-03
 0.1816000E-03  0.1816000E-03  0.1816000E-03  0.1816000E-03  0.1816000E-03  0.1816000E-03
 0.1816000E-03  0.1816000E-03  0.1816000E-03  0.1816000E-03  0.1816000E-03  0.1816000E-03
 0.1816000E-03  0.1816000E-03  0.1816000E-03  0.1816000E-03  0.1816000E-03  0.1816000E-03
 0.1816000E-03  0.1816000E-03  0.1816000E-03  0.1816000E-03  0.1816000E-03  0.1816000E-03
 0.1816000E-03  0.1816000E-03  0.1816000E-03  0.1816000E-03  0.1816000E-03  0.1816000E-03
 0.1816000E-03  0.1816000E-03  0.1816000E-03  0.1816000E-03  0.1816000E-03  0.1816000E-03
 0.1816000E-03  0.1816000E-03  0.1816000E-03  0.1816000E-03  0.1816000E-03  0.1816000E-03
 0.1816000E-03  0.1816000E-03  0.1816000E-03  0.1816000E-03  0.1816000E-03  0.1816000E-03
 0.1816000E-03  0.1816000E-03  0.1816000E-03  0.1816000E-03  0.1816000E-03  0.1816000E-03
 0.1816000E-03 -0.3300000E-02 -0.3300000E-02 -0.3300000E-02 -0.3300000E-02 -0.3300000E-02
-0.3300000E-02  0.1816000E-03  0.1816000E-03
 0.1816000E-03  0.1816000E-03  0.1816000E-03  0.1816000E-03  0.1816000E-03  0.1816000E-03
 0.1816000E-03  0.1816000E-03  0.1816000E-03  0.1816000E-03  0.1816000E-03  0.1816000E-03
 0.1816000E-03  0.1816000E-03  0.1816000E-03  0.1816000E-03  0.1816000E-03  0.1816000E-03
 0.1816000E-03  0.1816000E-03  0.1816000E-03  0.1816000E-03  0.1816000E-03  0.1816000E-03
 0.1816000E-03  0.1816000E-03  0.1816000E-03  0.1816000E-03  0.1816000E-03  0.1816000E-03
 0.1816000E-03  0.1816000E-03  0.1816000E-03  0.1816000E-03  0.1816000E-03  0.1816000E-03
 0.1816000E-03  0.1816000E-03  0.1816000E-03  0.1816000E-03  0.1816000E-03  0.1816000E-03
 0.1816000E-03  0.1816000E-03  0.1816000E-03  0.1816000E-03  0.1816000E-03  0.1816000E-03
 0.1816000E-03  0.1816000E-03  0.1816000E-03  0.1816000E-03  0.1816000E-03  0.1816000E-03
 0.1816000E-03 -0.3300000E-02 -0.3300000E-02 -0.3300000E-02 -0.3300000E-02 -0.3300000E-02
-0.3300000E-02  0.1816000E-03  0.1816000E-03
 0.1816000E-03  0.1816000E-03  0.1816000E-03  0.1816000E-03  0.1816000E-03  0.1816000E-03
 0.1816000E-03  0.1816000E-03  0.1816000E-03  0.1816000E-03  0.1816000E-03  0.1816000E-03
 0.1816000E-03  0.1816000E-03  0.1816000E-03  0.1816000E-03  0.1816000E-03  0.1816000E-03
 0.1816000E-03  0.1816000E-03  0.1816000E-03  0.1816000E-03  0.1816000E-03  0.1816000E-03
 0.1816000E-03  0.1816000E-03  0.1816000E-03  0.1816000E-03  0.1816000E-03  0.1816000E-03
 0.1816000E-03  0.1816000E-03  0.1816000E-03  0.1816000E-03  0.1816000E-03  0.1816000E-03
 0.1816000E-03  0.1816000E-03  0.1816000E-03  0.1816000E-03  0.1816000E-03  0.1816000E-03
 0.1816000E-03  0.1816000E-03  0.1816000E-03  0.1816000E-03  0.1816000E-03  0.1816000E-03
 0.1816000E-03  0.1816000E-03  0.1816000E-03  0.1816000E-03  0.1816000E-03  0.1816000E-03
 0.1816000E-03  0.1816000E-03  0.1816000E-03 -0.3300000E-02 -0.3300000E-02 -0.3300000E-02
-0.3300000E-02  0.1816000E-03  0.1816000E-03
 0.1816000E-03  0.1816000E-03  0.1816000E-03  0.1816000E-03  0.1816000E-03  0.1816000E-03
 0.1816000E-03  0.1816000E-03  0.1816000E-03  0.1816000E-03  0.1816000E-03  0.1816000E-03
 0.1816000E-03  0.1816000E-03  0.1816000E-03  0.1816000E-03  0.1816000E-03  0.1816000E-03
 0.1816000E-03  0.1816000E-03  0.1816000E-03  0.1816000E-03  0.1816000E-03  0.1816000E-03
 0.1816000E-03  0.1816000E-03  0.1816000E-03  0.1816000E-03  0.1816000E-03  0.1816000E-03
 0.1816000E-03  0.1816000E-03  0.1816000E-03  0.1816000E-03  0.1816000E-03  0.1816000E-03
 0.1816000E-03  0.1816000E-03  0.1816000E-03  0.1816000E-03  0.1816000E-03  0.1816000E-03
 0.1816000E-03  0.1816000E-03  0.1816000E-03  0.1816000E-03  0.1816000E-03  0.1816000E-03
 0.1816000E-03  0.1816000E-03  0.1816000E-03  0.1816000E-03  0.1816000E-03  0.1816000E-03
 0.1816000E-03  0.1816000E-03  0.1816000E-03  0.1816000E-03  0.1816000E-03  0.1816000E-03
 0.1816000E-03  0.1816000E-03  0.1816000E-03
 0.1816000E-03  0.1816000E-03  0.1816000E-03  0.1816000E-03  0.1816000E-03  0.1816000E-03
 0.1816000E-03  0.1816000E-03  0.1816000E-03  0.1816000E-03  0.1816000E-03  0.1816000E-03
 0.1816000E-03  0.1816000E-03  0.1816000E-03  0.1816000E-03  0.1816000E-03  0.1816000E-03
 0.1816000E-03  0.1816000E-03  0.1816000E-03  0.1816000E-03  0.1816000E-03  0.1816000E-03
 0.1816000E-03  0.1816000E-03  0.1816000E-03  0.1816000E-03  0.1816000E-03  0.1816000E-03
 0.1816000E-03  0.1816000E-03  0.1816000E-03  0.1816000E-03  0.1816000E-03  0.1816000E-03
 0.1816000E-03  0.1816000E-03  0.1816000E-03  0.1816000E-03  0.1816000E-03  0.1816000E-03
 0.1816000E-03  0.1816000E-03  0.1816000E-03  0.1816000E-03  0.1816000E-03  0.1816000E-03
 0.1816000E-03  0.1816000E-03  0.1816000E-03  0.1816000E-03  0.1816000E-03  0.1816000E-03
 0.1816000E-03  0.1816000E-03  0.1816000E-03  0.1816000E-03  0.1816000E-03  0.1816000E-03
 0.1816000E-03  0.1816000E-03  0.1816000E-03
 0.1816000E-03  0.1816000E-03  0.1816000E-03  0.1816000E-03  0.1816000E-03  0.1816000E-03
 0.1816000E-03  0.1816000E-03  0.1816000E-03  0.1816000E-03  0.1816000E-03  0.1816000E-03
 0.1816000E-03  0.1816000E-03  0.1816000E-03  0.1816000E-03  0.1816000E-03  0.1816000E-03
 0.1816000E-03  0.1816000E-03  0.1816000E-03  0.1816000E-03  0.1816000E-03  0.1816000E-03
 0.1816000E-03  0.1816000E-03  0.1816000E-03  0.1816000E-03  0.1816000E-03  0.1816000E-03
 0.1816000E-03  0.1816000E-03  0.1816000E-03  0.1816000E-03  0.1816000E-03  0.1816000E-03
 0.1816000E-03  0.1816000E-03  0.1816000E-03  0.1816000E-03  0.1816000E-03  0.1816000E-03
 0.1816000E-03  0.1816000E-03  0.1816000E-03  0.1816000E-03  0.1816000E-03  0.1816000E-03
 0.1816000E-03  0.1816000E-03  0.1816000E-03  0.1816000E-03  0.1816000E-03  0.1816000E-03
 0.1816000E-03  0.1816000E-03  0.1816000E-03  0.1816000E-03  0.1816000E-03  0.1816000E-03
 0.1816000E-03  0.1816000E-03  0.1816000E-03
 0.1816000E-03  0.1816000E-03  0.1816000E-03  0.1816000E-03  0.1816000E-03  0.1816000E-03
 0.1816000E-03  0.1816000E-03  0.1816000E-03  0.1816000E-03  0.1816000E-03  0.1816000E-03
 0.1816000E-03  0.1816000E-03  0.1816000E-03  0.1816000E-03  0.1816000E-03  0.1816000E-03
 0.1816000E-03  0.1816000E-03  0.1816000E-03  0.1816000E-03  0.1816000E-03  0.1816000E-03
 0.1816000E-03  0.1816000E-03  0.1816000E-03  0.1816000E-03  0.1816000E-03  0.1816000E-03
 0.1816000E-03  0.1816000E-03  0.1816000E-03  0.1816000E-03  0.1816000E-03  0.1816000E-03
 0.1816000E-03  0.1816000E-03  0.1816000E-03  0.1816000E-03  0.1816000E-03  0.1816000E-03
 0.1816000E-03  0.1816000E-03  0.1816000E-03  0.1816000E-03  0.1816000E-03  0.1816000E-03
 0.1816000E-03  0.1816000E-03  0.1816000E-03  0.1816000E-03  0.1816000E-03  0.1816000E-03
 0.1816000E-03  0.1816000E-03  0.1816000E-03  0.1816000E-03  0.1816000E-03  0.1816000E-03
 0.1816000E-03  0.1816000E-03  0.1816000E-03
 0.1816000E-03  0.1816000E-03  0.1816000E-03  0.1816000E-03  0.1816000E-03  0.1816000E-03
 0.1816000E-03  0.1816000E-03  0.1816000E-03  0.1816000E-03  0.1816000E-03  0.1816000E-03
 0.1816000E-03  0.1816000E-03  0.1816000E-03  0.1816000E-03  0.1816000E-03  0.1816000E-03
 0.1816000E-03  0.1816000E-03  0.1816000E-03  0.1816000E-03  0.1816000E-03  0.1816000E-03
 0.1816000E-03  0.1816000E-03  0.1816000E-03  0.1816000E-03  0.1816000E-03  0.1816000E-03
 0.1816000E-03  0.1816000E-03  0.1816000E-03  0.1816000E-03  0.1816000E-03  0.1816000E-03
 0.1816000E-03  0.1816000E-03  0.1816000E-03  0.1816000E-03  0.1816000E-03  0.1816000E-03
 0.1816000E-03  0.1816000E-03  0.1816000E-03  0.1816000E-03  0.1816000E-03  0.1816000E-03
 0.1816000E-03  0.1816000E-03  0.1816000E-03  0.1816000E-03  0.1816000E-03  0.1816000E-03
 0.1816000E-03  0.1816000E-03  0.1816000E-03  0.1816000E-03  0.1816000E-03  0.1816000E-03
 0.1816000E-03  0.1816000E-03  0.1816000E-03
 0.1816000E-03  0.1816000E-03  0.1816000E-03  0.1816000E-03  0.1816000E-03  0.1816000E-03
 0.1816000E-03  0.1816000E-03  0.1816000E-03  0.1816000E-03  0.1816000E-03  0.1816000E-03
 0.1816000E-03  0.1816000E-03  0.1816000E-03  0.1816000E-03  0.1816000E-03  0.1816000E-03
 0.1816000E-03  0.1816000E-03  0.1816000E-03  0.1816000E-03  0.1816000E-03  0.1816000E-03
 0.1816000E-03  0.1816000E-03  0.1816000E-03  0.1816000E-03  0.1816000E-03  0.1816000E-03
 0.1816000E-03  0.1816000E-03  0.1816000E-03  0.1816000E-03  0.1816000E-03  0.1816000E-03
 0.1816000E-03  0.1816000E-03  0.1816000E-03  0.1816000E-03  0.1816000E-03  0.1816000E-03
 0.1816000E-03  0.1816000E-03  0.1816000E-03  0.1816000E-03  0.1816000E-03  0.1816000E-03
 0.1816000E-03  0.1816000E-03  0.1816000E-03  0.1816000E-03  0.1816000E-03  0.1816000E-03
 0.1816000E-03  0.1816000E-03  0.1816000E-03  0.1816000E-03  0.1816000E-03  0.1816000E-03
 0.1816000E-03  0.1816000E-03  0.1816000E-03
 0.1816000E-03  0.1816000E-03  0.1816000E-03  0.1816000E-03  0.1816000E-03  0.1816000E-03
 0.1816000E-03  0.1816000E-03  0.1816000E-03  0.1816000E-03  0.1816000E-03  0.1816000E-03
 0.1816000E-03  0.1816000E-03  0.1816000E-03  0.1816000E-03  0.1816000E-03  0.1816000E-03
 0.1816000E-03  0.1816000E-03  0.1816000E-03  0.1816000E-03  0.1816000E-03  0.1816000E-03
 0.1816000E-03  0.1816000E-03  0.1816000E-03  0.1816000E-03  0.1816000E-03  0.1816000E-03
 0.1816000E-03  0.1816000E-03  0.1816000E-03  0.1816000E-03  0.1816000E-03  0.1816000E-03
 0.1816000E-03  0.1816000E-03  0.1816000E-03  0.1816000E-03  0.1816000E-03  0.1816000E-03
 0.1816000E-03  0.1816000E-03  0.1816000E-03  0.1816000E-03  0.1816000E-03  0.1816000E-03
 0.1816000E-03  0.1816000E-03  0.1816000E-03  0.1816000E-03  0.1816000E-03  0.1816000E-03
 0.1816000E-03  0.1816000E-03  0.1816000E-03  0.1816000E-03  0.1816000E-03  0.1816000E-03
 0.1816000E-03  0.1816000E-03  0.1816000E-03
 0.1816000E-03  0.1816000E-03  0.1816000E-03  0.1816000E-03  0.1816000E-03  0.1816000E-03
 0.1816000E-03  0.1816000E-03  0.1816000E-03  0.1816000E-03  0.1816000E-03  0.1816000E-03
 0.1816000E-03  0.1816000E-03  0.1816000E-03  0.1816000E-03  0.1816000E-03  0.1816000E-03
 0.1816000E-03  0.1816000E-03  0.1816000E-03  0.1816000E-03  0.1816000E-03  0.1816000E-03
 0.1816000E-03  0.1816000E-03  0.1816000E-03  0.1816000E-03  0.1816000E-03  0.1816000E-03
 0.1816000E-03  0.1816000E-03  0.1816000E-03  0.1816000E-03  0.1816000E-03  0.1816000E-03
 0.1816000E-03  0.1816000E-03  0.1816000E-03  0.1816000E-03  0.1816000E-03  0.1816000E-03
 0.1816000E-03  0.1816000E-03  0.1816000E-03  0.1816000E-03  0.1816000E-03  0.1816000E-03
 0.1816000E-03  0.1816000E-03  0.1816000E-03  0.1816000E-03  0.1816000E-03  0.1816000E-03
 0.1816000E-03  0.1816000E-03  0.1816000E-03  0.1816000E-03  0.1816000E-03  0.1816000E-03
 0.1816000E-03  0.1816000E-03  0.1816000E-03
 0.1816000E-03  0.1816000E-03  0.1816000E-03  0.1816000E-03  0.1816000E-03  0.1816000E-03
 0.1816000E-03  0.1816000E-03  0.1816000E-03  0.1816000E-03  0.1816000E-03  0.1816000E-03
 0.1816000E-03  0.1816000E-03  0.1816000E-03  0.1816000E-03  0.1816000E-03  0.1816000E-03
 0.1816000E-03  0.1816000E-03  0.1816000E-03  0.1816000E-03  0.1816000E-03  0.1816000E-03
 0.1816000E-03  0.1816000E-03  0.1816000E-03  0.1816000E-03  0.1816000E-03  0.1816000E-03
 0.1816000E-03  0.1816000E-03  0.1816000E-03  0.1816000E-03  0.1816000E-03  0.1816000E-03
 0.1816000E-03  0.1816000E-03  0.1816000E-03  0.1816000E-03  0.1816000E-03  0.1816000E-03
 0.1816000E-03  0.1816000E-03  0.1816000E-03  0.1816000E-03  0.1816000E-03  0.1816000E-03
 0.1816000E-03  0.1816000E-03  0.1816000E-03  0.1816000E-03  0.1816000E-03  0.1816000E-03
 0.1816000E-03  0.1816000E-03  0.1816000E-03  0.1816000E-03  0.1816000E-03  0.1816000E-03
 0.1816000E-03  0.1816000E-03  0.1816000E-03
 0.1816000E-03  0.1816000E-03  0.1816000E-03  0.1816000E-03  0.1816000E-03  0.1816000E-03
 0.1816000E-03  0.1816000E-03  0.1816000E-03  0.1816000E-03  0.1816000E-03  0.1816000E-03
 0.1816000E-03  0.1816000E-03  0.1816000E-03  0.1816000E-03  0.1816000E-03  0.1816000E-03
 0.1816000E-03  0.1816000E-03  0.1816000E-03  0.1816000E-03  0.1816000E-03  0.1816000E-03
 0.1816000E-03  0.1816000E-03  0.1816000E-03  0.1816000E-03  0.1816000E-03  0.1816000E-03
 0.1816000E-03  0.1816000E-03  0.1816000E-03  0.1816000E-03  0.1816000E-03  0.1816000E-03
 0.1816000E-03  0.1816000E-03  0.1816000E-03  0.1816000E-03  0.1816000E-03  0.1816000E-03
 0.1816000E-03  0.1816000E-03  0.1816000E-03  0.1816000E-03  0.1816000E-03  0.1816000E-03
 0.1816000E-03  0.1816000E-03  0.1816000E-03  0.1816000E-03  0.1816000E-03  0.1816000E-03
 0.1816000E-03  0.1816000E-03  0.1816000E-03  0.1816000E-03  0.1816000E-03  0.1816000E-03
 0.1816000E-03  0.1816000E-03  0.1816000E-03
 0.1816000E-03  0.1816000E-03  0.1816000E-03  0.1816000E-03  0.1816000E-03  0.1816000E-03
 0.1816000E-03  0.1816000E-03  0.1816000E-03  0.1816000E-03  0.1816000E-03  0.1816000E-03
 0.1816000E-03  0.1816000E-03  0.1816000E-03  0.1816000E-03  0.1816000E-03  0.1816000E-03
 0.1816000E-03  0.1816000E-03  0.1816000E-03  0.1816000E-03  0.1816000E-03  0.1816000E-03
 0.1816000E-03  0.1816000E-03  0.1816000E-03  0.1816000E-03  0.1816000E-03  0.1816000E-03
 0.1816000E-03  0.1816000E-03  0.1816000E-03  0.1816000E-03  0.1816000E-03  0.1816000E-03
 0.1816000E-03  0.1816000E-03  0.1816000E-03  0.1816000E-03  0.1816000E-03  0.1816000E-03
 0.1816000E-03  0.1816000E-03  0.1816000E-03  0.1816000E-03  0.1816000E-03  0.1816000E-03
 0.1816000E-03  0.1816000E-03  0.1816000E-03  0.1816000E-03  0.1816000E-03  0.1816000E-03
 0.1816000E-03  0.1816000E-03  0.1816000E-03  0.1816000E-03  0.1816000E-03  0.1816000E-03
 0.1816000E-03  0.1816000E-03  0.1816000E-03
 0.1816000E-03  0.1816000E-03  0.1816000E-03  0.1816000E-03  0.1816000E-03  0.1816000E-03
 0.1816000E-03  0.1816000E-03  0.1816000E-03  0.1816000E-03  0.1816000E-03  0.1816000E-03
 0.1816000E-03  0.1816000E-03  0.1816000E-03  0.1816000E-03  0.1816000E-03  0.1816000E-03
 0.1816000E-03  0.1816000E-03  0.1816000E-03  0.1816000E-03  0.1816000E-03  0.1816000E-03
 0.1816000E-03  0.1816000E-03  0.1816000E-03  0.1816000E-03  0.1816000E-03  0.1816000E-03
 0.1816000E-03  0.1816000E-03  0.1816000E-03  0.1816000E-03  0.1816000E-03  0.1816000E-03
 0.1816000E-03  0.1816000E-03  0.1816000E-03  0.1816000E-03  0.1816000E-03  0.1816000E-03
 0.1816000E-03  0.1816000E-03  0.1816000E-03  0.1816000E-03  0.1816000E-03  0.1816000E-03
 0.1816000E-03  0.1816000E-03  0.1816000E-03  0.1816000E-03  0.1816000E-03  0.1816000E-03
 0.1816000E-03  0.1816000E-03  0.1816000E-03  0.1816000E-03  0.1816000E-03  0.1816000E-03
 0.1816000E-03  0.1816000E-03  0.1816000E-03
 0.1816000E-03  0.1816000E-03  0.1816000E-03  0.1816000E-03  0.1816000E-03  0.1816000E-03
 0.1816000E-03  0.1816000E-03  0.1816000E-03  0.1816000E-03  0.1816000E-03  0.1816000E-03
 0.1816000E-03  0.1816000E-03  0.1816000E-03  0.1816000E-03  0.1816000E-03  0.1816000E-03
 0.1816000E-03  0.1816000E-03  0.1816000E-03  0.1816000E-03  0.1816000E-03  0.1816000E-03
 0.1816000E-03  0.1816000E-03  0.1816000E-03  0.1816000E-03  0.1816000E-03  0.1816000E-03
 0.1816000E-03  0.1816000E-03  0.1816000E-03  0.1816000E-03  0.1816000E-03  0.1816000E-03
 0.1816000E-03  0.1816000E-03  0.1816000E-03  0.1816000E-03  0.1816000E-03  0.1816000E-03
 0.1816000E-03  0.1816000E-03  0.1816000E-03  0.1816000E-03  0.1816000E-03  0.1816000E-03
 0.1816000E-03  0.1816000E-03  0.1816000E-03  0.1816000E-03  0.1816000E-03  0.1816000E-03
 0.1816000E-03  0.1816000E-03  0.1816000E-03  0.1816000E-03  0.1816000E-03  0.1816000E-03
 0.1816000E-03  0.1816000E-03  0.1816000E-03
 0.1816000E-03  0.1816000E-03  0.1816000E-03  0.1816000E-03  0.1816000E-03  0.1816000E-03
 0.1816000E-03  0.1816000E-03  0.1816000E-03  0.1816000E-03  0.1816000E-03  0.1816000E-03
 0.1816000E-03  0.1816000E-03  0.1816000E-03  0.1816000E-03  0.1816000E-03  0.1816000E-03
 0.1816000E-03  0.1816000E-03  0.1816000E-03  0.1816000E-03  0.1816000E-03  0.1816000E-03
 0.1816000E-03  0.1816000E-03  0.1816000E-03  0.1816000E-03  0.1816000E-03  0.1816000E-03
 0.1816000E-03  0.1816000E-03  0.1816000E-03  0.1816000E-03  0.1816000E-03  0.1816000E-03
 0.1816000E-03  0.1816000E-03  0.1816000E-03  0.1816000E-03  0.1816000E-03  0.1816000E-03
 0.1816000E-03  0.1816000E-03  0.1816000E-03  0.1816000E-03  0.1816000E-03  0.1816000E-03
 0.1816000E-03  0.1816000E-03  0.1816000E-03  0.1816000E-03  0.1816000E-03  0.1816000E-03
 0.1816000E-03  0.1816000E-03  0.1816000E-03  0.1816000E-03  0.1816000E-03  0.1816000E-03
 0.1816000E-03  0.1816000E-03  0.1816000E-03
 0.1816000E-03  0.1816000E-03  0.1816000E-03  0.1816000E-03  0.1816000E-03  0.1816000E-03
 0.1816000E-03  0.1816000E-03  0.1816000E-03  0.1816000E-03  0.1816000E-03  0.1816000E-03
 0.1816000E-03  0.1816000E-03  0.1816000E-03  0.1816000E-03  0.1816000E-03  0.1816000E-03
 0.1816000E-03  0.1816000E-03  0.1816000E-03  0.1816000E-03  0.1816000E-03  0.1816000E-03
 0.1816000E-03  0.1816000E-03  0.1816000E-03  0.1816000E-03  0.1816000E-03  0.1816000E-03
 0.1816000E-03  0.1816000E-03  0.1816000E-03  0.1816000E-03  0.1816000E-03  0.1816000E-03
 0.1816000E-03  0.1816000E-03  0.1816000E-03  0.1816000E-03  0.1816000E-03  0.1816000E-03
 0.1816000E-03  0.1816000E-03  0.1816000E-03  0.1816000E-03  0.1816000E-03  0.1816000E-03
 0.1816000E-03  0.1816000E-03  0.1816000E-03  0.1816000E-03  0.1816000E-03  0.1816000E-03
 0.1816000E-03  0.1816000E-03  0.1816000E-03  0.1816000E-03  0.1816000E-03  0.1816000E-03
 0.1816000E-03  0.1816000E-03  0.1816000E-03
 0.1816000E-03 -0.2390000E-01  0.1816000E-03  0.1816000E-03  0.1816000E-03  0.1816000E-03
 0.1816000E-03  0.1816000E-03  0.1816000E-03  0.1816000E-03  0.1816000E-03  0.1816000E-03
 0.1816000E-03  0.1816000E-03  0.3799000E-02  0.3799000E-02  0.3799000E-02  0.1816000E-03
 0.1816000E-03  0.1816000E-03  0.1816000E-03  0.1816000E-03  0.1816000E-03  0.1816000E-03
 0.1816000E-03  0.1816000E-03  0.1816000E-03  0.1816000E-03  0.1816000E-03  0.1816000E-03
 0.1816000E-03  0.6739300E-02  0.6739300E-02  0.6739300E-02  0.1816000E-03  0.1816000E-03
 0.1816000E-03  0.1816000E-03  0.1816000E-03  0.1816000E-03  0.1816000E-03  0.1816000E-03
 0.1816000E-03  0.1816000E-03  0.1816000E-03  0.1816000E-03  0.1816000E-03  0.1816000E-03
 0.1816000E-03  0.1816000E-03  0.1816000E-03  0.1816000E-03  0.1816000E-03  0.1816000E-03
 0.1816000E-03  0.1816000E-03  0.1816000E-03  0.1816000E-03  0.1816000E-03  0.1816000E-03
 0.1816000E-03  0.1816000E-03  0.1816000E-03
 0.1816000E-03 -0.2390000E-01  0.1816000E-03  0.1816000E-03  0.3799000E-02  0.1816000E-03
 0.1816000E-03  0.1816000E-03  0.1816000E-03  0.1816000E-03  0.1816000E-03  0.1816000E-03
 0.1816000E-03  0.1816000E-03  0.3799000E-02  0.3799000E-02  0.3799000E-02  0.3799000E-02
 0.1816000E-03  0.1816000E-03  0.1816000E-03  0.1816000E-03  0.1816000E-03  0.1816000E-03
 0.1816000E-03  0.1816000E-03  0.1816000E-03  0.1816000E-03  0.1816000E-03  0.1816000E-03
 0.6739300E-02  0.6739300E-02  0.6739300E-02  0.6739300E-02  0.1816000E-03  0.1816000E-03
 0.1816000E-03  0.1816000E-03  0.1816000E-03  0.1816000E-03  0.1816000E-03  0.1816000E-03
 0.1816000E-03  0.1816000E-03  0.1816000E-03  0.1816000E-03  0.1816000E-03  0.1816000E-03
 0.1816000E-03  0.1816000E-03  0.1816000E-03  0.1816000E-03  0.1816000E-03  0.1816000E-03
 0.1816000E-03  0.1816000E-03  0.1816000E-03  0.1816000E-03  0.1816000E-03  0.1816000E-03
 0.1816000E-03  0.1816000E-03  0.1816000E-03
 0.1816000E-03 -0.2390000E-01  0.1816000E-03  0.1816000E-03  0.1816000E-03  0.3799000E-02
 0.1816000E-03  0.1816000E-03  0.1816000E-03  0.1816000E-03  0.1816000E-03  0.1816000E-03
 0.1816000E-03  0.3799000E-02  0.3799000E-02  0.3799000E-02  0.3799000E-02  0.3799000E-02
 0.1816000E-03  0.1816000E-03  0.1816000E-03  0.1816000E-03  0.1816000E-03  0.1816000E-03
 0.1816000E-03  0.1816000E-03  0.1816000E-03  0.1816000E-03  0.1816000E-03  0.1816000E-03
 0.1816000E-03  0.1816000E-03  0.6739300E-02  0.6739300E-02  0.1816000E-03  0.1816000E-03
 0.1816000E-03  0.1816000E-03  0.1816000E-03  0.1816000E-03  0.1816000E-03  0.1816000E-03
 0.1816000E-03  0.1816000E-03  0.1816000E-03  0.1816000E-03  0.1816000E-03  0.1816000E-03
 0.1816000E-03  0.1816000E-03  0.1816000E-03  0.1816000E-03  0.1816000E-03  0.1816000E-03
 0.1816000E-03  0.1816000E-03  0.1816000E-03  0.1816000E-03  0.1816000E-03  0.1816000E-03
 0.1816000E-03  0.1816000E-03  0.1816000E-03
 0.1816000E-03 -0.2390000E-01  0.1816000E-03  0.1816000E-03  0.1816000E-03  0.1816000E-03
 0.3799000E-02  0.3799000E-02  0.1816000E-03  0.1816000E-03  0.1816000E-03  0.1816000E-03
 0.3799000E-02  0.3799000E-02  0.3799000E-02  0.3799000E-02  0.3799000E-02  0.3799000E-02
 0.1816000E-03  0.1816000E-03  0.1816000E-03  0.1816000E-03  0.1816000E-03  0.1816000E-03
 0.1816000E-03  0.1816000E-03  0.1816000E-03  0.1816000E-03  0.1816000E-03  0.1816000E-03
 0.1816000E-03  0.6739300E-02  0.6739300E-02  0.1816000E-03  0.1816000E-03  0.1816000E-03
 0.1816000E-03  0.1816000E-03  0.1816000E-03  0.1816000E-03  0.1816000E-03  0.1816000E-03
 0.1816000E-03  0.1816000E-03  0.1816000E-03  0.1816000E-03  0.1816000E-03  0.1816000E-03
 0.1816000E-03  0.1816000E-03  0.1816000E-03  0.1816000E-03  0.1816000E-03  0.1816000E-03
 0.1816000E-03  0.1816000E-03  0.1816000E-03  0.1816000E-03  0.1816000E-03  0.1816000E-03
 0.1816000E-03  0.1816000E-03  0.1816000E-03
 0.1816000E-03  0.1816000E-03  0.1816000E-03  0.1816000E-03 -0.4212000E-02  0.1816000E-03
 0.1816000E-03  0.3799000E-02  0.3799000E-02  0.3799000E-02  0.1816000E-03  0.3799000E-02
 0.3799000E-02  0.3799000E-02  0.3799000E-02  0.3799000E-02  0.3799000E-02  0.1816000E-03
 0.1816000E-03  0.1816000E-03  0.1816000E-03  0.1816000E-03  0.1816000E-03  0.1816000E-03
 0.1816000E-03  0.1816000E-03  0.1816000E-03  0.1816000E-03  0.1816000E-03  0.1816000E-03
 0.6739300E-02  0.6739300E-02  0.1816000E-03  0.1816000E-03  0.1816000E-03  0.1816000E-03
 0.1816000E-03  0.1816000E-03  0.1816000E-03  0.1816000E-03  0.1816000E-03  0.1816000E-03
 0.1816000E-03  0.1816000E-03  0.1816000E-03  0.1816000E-03  0.1816000E-03  0.1816000E-03
 0.1816000E-03  0.1816000E-03  0.1816000E-03  0.1816000E-03  0.1816000E-03  0.1816000E-03
 0.1816000E-03  0.1816000E-03  0.1816000E-03  0.1816000E-03  0.1816000E-03  0.1816000E-03
 0.1816000E-03  0.1816000E-03  0.1816000E-03
 0.1816000E-03  0.1816000E-03  0.1816000E-03  0.1816000E-03 -0.4212000E-02 -0.4212000E-02
 0.1816000E-03  0.1816000E-03  0.3799000E-02  0.3799000E-02  0.3799000E-02  0.3799000E-02
 0.3799000E-02  0.3799000E-02  0.3799000E-02  0.3799000E-02  0.1816000E-03  0.1816000E-03
 0.1816000E-03  0.1816000E-03  0.1816000E-03  0.1816000E-03  0.1816000E-03  0.1816000E-03
 0.1816000E-03  0.1816000E-03  0.1816000E-03  0.1816000E-03  0.1816000E-03  0.6739300E-02
 0.6739300E-02  0.1816000E-03  0.1816000E-03  0.1816000E-03  0.1816000E-03  0.1816000E-03
 0.1816000E-03  0.1816000E-03  0.1816000E-03  0.1816000E-03  0.1816000E-03  0.1816000E-03
 0.1816000E-03  0.1816000E-03  0.1816000E-03  0.1816000E-03  0.1816000E-03  0.1816000E-03
 0.1816000E-03  0.1816000E-03  0.1816000E-03  0.1816000E-03  0.1816000E-03  0.1816000E-03
 0.1816000E-03  0.1816000E-03  0.1816000E-03  0.1816000E-03  0.1816000E-03  0.1816000E-03
 0.1816000E-03  0.1816000E-03  0.1816000E-03
 0.1816000E-03  0.1816000E-03  0.1816000E-03  0.1816000E-03  0.1816000E-03 -0.4212000E-02
-0.4212000E-02  0.1816000E-03  0.1816000E-03  0.3799000E-02  0.3799000E-02  0.3799000E-02
 0.3799000E-02  0.3799000E-02  0.3799000E-02  0.1816000E-03  0.1816000E-03  0.1816000E-03
 0.1816000E-03  0.1816000E-03  0.1816000E-03  0.1816000E-03  0.1816000E-03  0.1816000E-03
 0.1816000E-03  0.1816000E-03  0.1816000E-03  0.1816000E-03  0.6739300E-02  0.6739300E-02
 0.1816000E-03  0.1816000E-03  0.1816000E-03  0.1816000E-03  0.1816000E-03  0.1816000E-03
 0.1816000E-03  0.1816000E-03  0.1816000E-03  0.1816000E-03  0.1816000E-03  0.1816000E-03
 0.1816000E-03  0.1816000E-03  0.1816000E-03  0.1816000E-03  0.1816000E-03  0.1816000E-03
 0.1816000E-03  0.1816000E-03  0.1816000E-03  0.1816000E-03  0.1816000E-03  0.1816000E-03
 0.1816000E-03  0.1816000E-03  0.1816000E-03  0.1816000E-03  0.1816000E-03  0.1816000E-03
 0.1816000E-03  0.1816000E-03  0.1816000E-03
 0.1816000E-03  0.1816000E-03  0.1816000E-03  0.1816000E-03  0.1816000E-03  0.1816000E-03
 0.1816000E-03 -0.4212000E-02 -0.4212000E-02  0.3799000E-02  0.3799000E-02  0.3799000E-02
 0.3799000E-02  0.3799000E-02  0.3799000E-02  0.3799000E-02  0.3799000E-02  0.1816000E-03
 0.1816000E-03  0.1816000E-03  0.1816000E-03  0.1816000E-03  0.1816000E-03  0.1816000E-03
 0.1816000E-03  0.1816000E-03  0.6739300E-02  0.6739300E-02  0.6739300E-02  0.1816000E-03