# WEL6 input file, prepared by MF5to6 on 7/11/2022 at 14:24:43.

BEGIN Options
  PRINT_INPUT
  PRINT_FLOWS
  SAVE_FLOWS
END Options

BEGIN Dimensions
  MAXBOUND  63
END Dimensions

BEGIN PERIOD 1
  1  20  13   -91134.250
  1  21  14   -70249.320
  1  21  30   -6813.1000
  1  22  15   -60756.160
  1  22  32   -10620.420
  1  23  16   -75945.210
  1  23  20   -5210.0200
  1  23  24   -4809.2500
  1  23  26   -2404.6200
  1  23  32   -5049.7100
  1  24  16   -36073.970
  1  24  21   -2805.3900
  1  24  26   -2805.3900
  1  24  29   -9618.4900
  1  25  19   -9618.4900
  1  25  23   -32863.180
  1  25  28   -10420.030
  1  26  27   -4408.4700
  1  26  28   -7213.8700
  1  26  29   -6813.1000
  1  27  17   -4408.4700
  1  27  21   -16030.820
  1  27  25   -9618.4900
  1  27  30   -8416.1800
  1  28  14   -7013.4800
  1  28  21   -4007.7000
  1  29  20   -3606.9300
  1  29  28   -8616.5600
  1  30  43   -5610.7900
  1  31  5   -13869.530
  1  36  47   -8015.4100
  1  38  14   -55044.700
  1  39  5   -10402.150
  1  39  13   -15603.220
  1  39  15   -100120.67
  1  39  19   -9535.3000
  1  40  6   -13002.680
  1  40  15   -1300.2700
  1  40  16   -53744.430
  1  40  18   -32073.290
  1  40  31   -19236.980
  1  41  14   -12135.840
  1  41  15   -6501.3400
  1  41  19   -20804.290
  1  41  35   -5610.7900
  1  41  36   -9217.7200
  1  41  53   -9137.5700
  1  42  12   -22884.720
  1  42  13   -7801.6100
  1  42  27   -20544.240
  1  42  52   -4408.4700
  1  43  18   -17336.910
  1  43  53   -8015.4100
  1  44  25   -15603.220
  1  44  53   -8015.4100
  1  44  54   -4007.7000
  1  45  21   -29906.170
  1  45  38   -10019.260
  1  47  23   -17839.680
  1  48  23   -7801.6100
  1  52  40   -29316.720
  1  39  23   -20000.000
  1  35  15   -40000.000
END PERIOD
