# RIV package for  MODFLOW-2005, generated by Flopy.
        66         0
        66         0 # stress period 1
         open/close ref\RIV_0000.dat
