# OC package for  MODFLOW-2005, generated by Flopy.
HEAD PRINT FORMAT   0
HEAD SAVE UNIT    30
DRAWDOWN PRINT FORMAT   0
DRAWDOWN SAVE UNIT    31

period 1 step 1 
  PRINT BUDGET
  SAVE BUDGET
  SAVE HEAD
  SAVE DRAWDOWN

