# DIS package for  MODFLOW-2005, generated by Flopy.
         1        57        63         1         4         1
  0
OPEN/CLOSE                    ref\delr.ref               1     (FREE) -1 delr                          
OPEN/CLOSE                    ref\delc.ref               1     (FREE)  0 delc                          
OPEN/CLOSE               ref\model_top.ref               1     (FREE) -1 model_top                     
OPEN/CLOSE            ref\botm_layer_1.ref               1     (FREE) -1 botm_layer_0                  
   1000.000000             1  1.000000  SS 
