# EVT package for  MODFLOW-2005, generated by Flopy.
         1        50
         1         1         1         1 # Evapotranspiration  dataset 5 for stress period 1
OPEN/CLOSE                   ref\surf0.ref               1     (FREE) -1 surf1                         
OPEN/CLOSE                   ref\evtr0.ref               1     (FREE) -1 evtr1                         
OPEN/CLOSE                   ref\exdp0.ref               1     (FREE) -1 exdp1                         
