# WEL package for  MODFLOW-2005, generated by Flopy.
        63        54 
        63         0 # stress period 1
         open/close ref\WEL_0000.dat
