# DRN package for  MODFLOW-2005, generated by Flopy.
         0        50
         0         0 # stress period 1
