# SIP package for  MODFLOW-2005, generated by Flopy.
       250         5
     1.000         1         3    11.000         0
