# GHB package for  MODFLOW-2005, generated by Flopy.
        14         0
        14         0 # stress period 1
         open/close ref\GHB_0000.dat
