# BAS6 package for MODFLOW-2000 generated by Flopy 3.3.5

OPEN/CLOSE          ref\ibound_layer_1.ref               1     (FREE) -1 ibound_layer_0                
     999.0
OPEN/CLOSE            ref\strt_layer_1.ref               1     (FREE) -1 strt_layer_0                  
