# LPF package for MODFLOW-2000 generated by Flopy 3.3.5
        50    -1E+30         0  
         1
         0
   1.000000E+00
         0
         0
OPEN/CLOSE              ref\hk_Layer_1.ref               1     (FREE) -1 hk                            
OPEN/CLOSE                    ref\vka1.ref               1     (FREE) -1 vk                            
