# EVT package for MODFLOW-2000 generated by Flopy 3.3.5
         1        50
         1         1         1         1 # Evapotranspiration dataset 5 for stress period 1
OPEN/CLOSE                   ref\surf0.ref               1     (FREE) -1 surf1                         
OPEN/CLOSE                   ref\evtr0.ref               1     (FREE) -1 evtr1                         
OPEN/CLOSE                   ref\exdp0.ref               1     (FREE) -1 exdp1                         
