# LMT6 package for MODFLOW-2000 generated by Flopy 3.3.5
OUTPUT_FILE_NAME     HC_010511c.ftl      
OUTPUT_FILE_UNIT             14
OUTPUT_FILE_HEADER   Extended            
OUTPUT_FILE_FORMAT   Unformatted         
