# RCH package for MODFLOW-2000 generated by Flopy 3.3.5
         3        51
         1        -1 # Stress period 1
OPEN/CLOSE                  ref\rech_0.ref               1     (FREE) -1 rech_1                        
