# DRN package for MODFLOW-2000 generated by Flopy 3.3.5
         0        50
         0         0 # stress period 1
