# WEL package for MODFLOW-2000 generated by Flopy 3.3.5
        61        54 
        61         0 # stress period 1
         open/close ref\WEL_0000.dat
