# SFR package for MODFLOW-2000 generated by Flopy 3.3.5
203 24 0 0 1.48600000 0.01000000 0 0 
1 56 47 1 1 1109.5
1 56 46 1 2 1109.5
1 55 46 1 3 1109.5
1 55 45 1 4 1109.5
1 54 45 1 5 1109.5
1 54 44 1 6 1109.5
1 53 44 1 7 1109.5
1 53 43 1 8 1109.5
1 53 42 1 9 1109.5
1 53 41 1 10 1109.5
1 52 41 1 11 1109.5
1 51 41 1 12 1109.5
1 51 40 1 13 1109.5
1 50 40 1 14 1109.5
1 50 39 1 15 1109.5
1 50 38 1 16 1109.5
1 49 38 1 17 1109.5
1 49 39 1 18 1109.5
1 48 39 1 19 1109.5
1 47 39 1 20 1109.5
1 47 38 2 1 783.5
1 47 37 2 2 783.5
1 46 37 2 3 783.5
1 46 36 2 4 783.5
1 45 36 2 5 783.5
1 45 35 2 6 783.5
1 44 35 2 7 783.5
1 44 34 2 8 783.5
1 43 34 2 9 783.5
1 42 34 2 10 783.5
1 42 33 2 11 783.5
1 41 33 2 12 783.5
1 42 32 3 1 940.3
1 42 31 3 2 940.3
1 43 31 3 3 940.3
1 43 30 3 4 940.3
1 44 30 3 5 940.3
1 44 29 3 6 940.3
1 44 28 3 7 940.3
1 44 27 3 8 940.3
1 44 26 3 9 940.3
1 43 26 3 10 940.3
1 43 25 3 11 940.3
1 41 32 4 1 1177.5
1 41 31 4 2 1177.5
1 41 30 4 3 1177.5
1 41 29 4 4 1177.5
1 41 28 4 5 1177.5
1 40 28 4 6 1177.5
1 40 27 5 1 1131.0
1 40 26 5 2 1131.0
1 39 26 5 3 1131.0
1 39 25 5 4 1131.0
1 38 25 6 1 866.9
1 37 25 6 2 866.9
1 37 24 6 3 866.9
1 36 24 6 4 866.9
1 36 25 6 5 866.9
1 35 25 6 6 866.9
1 34 25 6 7 866.9
1 34 26 6 8 866.9
1 33 26 6 9 866.9
1 33 27 6 10 866.9
1 32 27 6 11 866.9
1 32 28 6 12 866.9
1 32 29 6 13 866.9
1 31 29 6 14 866.9
1 31 30 6 15 866.9
1 30 30 6 16 866.9
1 30 31 6 17 866.9
1 29 31 6 18 866.9
1 29 32 6 19 866.9
1 28 32 6 20 866.9
1 28 33 6 21 866.9
1 27 33 6 22 866.9
1 27 34 6 23 866.9
1 26 34 6 24 866.9
1 25 34 6 25 866.9
1 39 24 7 1 1203.7
1 39 23 7 2 1203.7
1 39 22 7 3 1203.7
1 40 22 7 4 1203.7
1 40 21 7 5 1203.7
1 39 21 7 6 1203.7
1 39 20 7 7 1203.7
1 38 20 7 8 1203.7
1 37 20 7 9 1203.7
1 37 19 8 1 1106.8
1 37 18 8 2 1106.8
1 36 18 8 3 1106.8
1 36 17 8 4 1106.8
1 36 16 8 5 1106.8
1 35 18 9 1 892.1
1 35 17 9 2 892.1
1 34 17 9 3 892.1
1 33 17 9 4 892.1
1 32 17 9 5 892.1
1 31 17 9 6 892.1
1 31 18 9 7 892.1
1 30 18 9 8 892.1
1 29 18 9 9 892.1
1 52 7 10 1 970.0
1 52 8 10 2 970.0
1 51 8 10 3 970.0
1 51 9 10 4 970.0
1 50 9 10 5 970.0
1 50 10 10 6 970.0
1 50 11 10 7 970.0
1 49 11 10 8 970.0
1 49 12 10 9 970.0
1 50 12 10 10 970.0
1 50 13 10 11 970.0
1 49 18 11 1 821.1
1 50 18 11 2 821.1
1 50 17 11 3 821.1
1 50 16 11 4 821.1
1 50 15 11 5 821.1
1 50 14 11 6 821.1
1 49 13 12 1 1024.8
1 49 14 12 2 1024.8
1 49 15 12 3 1024.8
1 48 15 12 4 1024.8
1 48 16 12 5 1024.8
1 48 17 12 6 1024.8
1 47 17 12 7 1024.8
1 46 17 12 8 1024.8
1 46 16 12 9 1024.8
1 45 16 12 10 1024.8
1 45 15 12 11 1024.8
1 45 14 12 12 1024.8
1 44 14 12 13 1024.8
1 43 14 12 14 1024.8
1 43 13 12 15 1024.8
1 42 13 12 16 1024.8
1 42 12 13 1 823.0
1 42 11 13 2 823.0
1 42 10 13 3 823.0
1 42 9 13 4 823.0
1 42 8 13 5 823.0
1 41 8 13 6 823.0
1 40 8 13 7 823.0
1 40 7 13 8 823.0
1 39 7 13 9 823.0
1 39 6 13 10 823.0
1 38 6 13 11 823.0
1 41 13 14 1 1238.0
1 40 13 14 2 1238.0
1 39 13 15 1 857.4
1 38 13 15 2 857.4
1 38 14 15 3 857.4
1 37 14 15 4 857.4
1 36 14 15 5 857.4
1 36 15 15 6 857.4
1 40 12 16 1 762.6
1 39 12 16 2 762.6
1 38 12 16 3 762.6
1 37 12 16 4 762.6
1 37 11 16 5 762.6
1 36 11 16 6 762.6
1 35 11 16 7 762.6
1 34 11 16 8 762.6
1 34 10 16 9 762.6
1 35 16 17 1 1003.1
1 35 15 17 2 1003.1
1 35 14 17 3 1003.1
1 35 13 17 4 1003.1
1 34 13 17 5 1003.1
1 34 12 17 6 1003.1
1 33 12 17 7 1003.1
1 33 11 18 1 1048.0
1 33 10 18 2 1048.0
1 32 10 18 3 1048.0
1 31 10 19 1 1193.5
1 31 9 19 2 1193.5
1 30 9 19 3 1193.5
1 30 8 20 1 603.2
1 29 8 20 2 603.2
1 29 7 20 3 603.2
1 28 7 20 4 603.2
1 29 9 21 1 563.2
1 29 10 21 2 563.2
1 28 10 21 3 563.2
1 28 11 21 4 563.2
1 27 11 21 5 563.2
1 32 9 22 1 2022.6
1 32 8 22 2 2022.6
1 31 8 22 3 2022.6
1 31 7 22 4 2022.6
1 31 6 22 5 2022.6
1 30 6 22 6 2022.6
1 30 5 22 7 2022.6
1 29 5 22 8 2022.6
1 28 5 23 1 1787.9
1 28 4 23 2 1787.9
1 28 3 23 3 1787.9
1 27 3 23 4 1787.9
1 27 2 23 5 1787.9
1 26 2 23 6 1787.9
1 27 5 24 1 784.9
1 27 4 24 2 784.9
1 26 4 24 3 784.9
1 26 3 24 4 784.9
1 25 3 24 5 784.8515
24 0 0 0
1 0 2 0 0 0 0 0 
0.5 1.0 4663.6 13.0 6.6 
0.5 1.0 4606.9 13.0 6.6 
2 0 4 0 0 0 0 0 
0.5 1.0 4606.9 13.0 6.6 
0.5 1.0 4589.7 13.0 6.6 
3 0 4 0 0 0 0 0 
0.5 1.0 4589.7 13.0 6.6 
0.5 1.0 4563.3 13.0 6.6 
4 0 5 0 0 0 0 0 
0.5 1.0 4589.7 9.0 6.6 
0.5 1.0 4563.6 9.0 6.6 
5 0 7 0 0 0 0 0 
0.5 1.0 4563.6 7.0 6.6 
0.5 1.0 4551.6 7.0 6.5 
6 0 0 0 0 0 0 0 
0.5 1.0 4551.6 16.0 6.5 
0.5 1.0 4524.7 16.0 6.5 
7 0 8 0 0 0 0 0 
0.5 1.0 4551.6 10.0 6.5 
0.5 1.0 4530.0 10.0 6.5 
8 0 17 0 0 0 0 0 
0.5 1.0 4530.0 8.0 6.5 
0.5 1.0 4511.3 8.0 6.5 
9 0 0 0 0 0 0 0 
0.5 1.0 4516.2 10.0 6.6 
0.5 1.0 4510.0 18.0 6.6 
10 0 0 0 0 0 0 0 
0.5 1.0 4618.7 12.0 6.6 
0.5 1.0 4587.1 12.0 6.6 
11 0 12 0 0 0 0 0 
0.5 1.0 4591.3 15.0 6.6 
0.5 1.0 4587.1 10.0 6.6 
12 0 0 0 0 0 0 0 
0.5 1.0 4587.1 10.0 6.6 
0.5 1.0 4532.1 10.0 6.6 
13 0 0 0 0 0 0 0 
0.5 1.0 4532.1 12.0 6.6 
0.5 1.0 4501.7 12.0 6.6 
14 0 16 0 0 0 0 0 
0.5 1.0 4532.1 2.0 6.6 
0.5 1.0 4501.7 2.0 6.6 
15 0 17 0 0 0 0 0 
0.5 1.0 4516.5 7.0 6.6 
0.5 1.0 4512.3 7.0 6.6 
16 0 18 0 0 0 0 0 
0.5 1.0 4516.5 10.0 6.6 
0.5 1.0 4493.1 10.0 6.6 
17 0 18 0 0 0 0 0 
0.5 1.0 4511.3 7.0 6.5 
0.5 1.0 4491.7 7.0 6.6 
18 0 22 0 0 0 0 0 
0.5 1.0 4491.7 8.0 6.6 
0.5 1.0 4490.0 8.0 6.6 
19 0 22 0 0 0 0 0 
0.5 1.0 4490.0 10.0 6.6 
0.5 1.0 4484.7 10.0 6.6 
20 0 23 0 0 0 0 0 
0.5 1.0 4484.7 4.0 6.6 
0.5 1.0 4472.2 4.0 6.6 
21 0 -1 0 0 0 0 0 
0.5 1.0 4484.7 10.0 6.6 
0.5 1.0 4480.9 10.0 6.6 
22 0 23 0 0 0 0 0 
0.5 1.0 4490.0 16.0 6.6 
0.5 1.0 4453.9 16.0 6.6 
23 0 24 0 0 0 0 0 
0.5 1.0 4453.9 18.0 6.6 
0.5 1.0 4441.5 18.0 6.5 
24 0 23 0 0 0 0 0 
0.5 1.0 4453.9 10.0 6.6 
0.5 1.0 4450.468 10.0 6.56 
