# SIP package for MODFLOW-2000 generated by Flopy 3.3.5
       250         5
     1.000     0.001         1     1.000         5
