# OC package for MODFLOW-2000 generated by Flopy 3.3.5
HEAD PRINT FORMAT   0
HEAD SAVE UNIT    30
DRAWDOWN PRINT FORMAT   0
DRAWDOWN SAVE UNIT    31

period 1 step 1 
  PRINT BUDGET
  SAVE BUDGET
  SAVE HEAD
  SAVE DRAWDOWN

